data_image0
_symmetry_space_group_name_H-M    "P 1"
_symmetry_int_tables_number       1

loop_
 _symmetry_equiv_pos_as_xyz
 'x, y, z'

_cell_length_a	35.046
_cell_length_b	35.288
_cell_length_c	29.604
_cell_angle_alpha	90.0000
_cell_angle_beta	116.1040
_cell_angle_gamma	90.0000

loop_
 _atom_site_label
 _atom_site_type_symbol
 _atom_site_fract_x
 _atom_site_fract_y
 _atom_site_fract_z
O1 O 0.0 0.164000004529953 0.125
O2 O 0.0 0.164000004529953 0.375
O3 O 0.0 0.164000004529953 0.625
O4 O 0.0 0.164000004529953 0.875
O5 O 0.0 0.6639999747276306 0.125
O6 O 0.0 0.6639999747276306 0.375
O7 O 0.0 0.6639999747276306 0.625
O8 O 0.0 0.6639999747276306 0.875
O9 O 0.5 0.164000004529953 0.125
O10 O 0.5 0.164000004529953 0.375
O11 O 0.5 0.164000004529953 0.625
O12 O 0.5 0.164000004529953 0.875
O13 O 0.5 0.6639999747276306 0.125
O14 O 0.5 0.6639999747276306 0.375
O15 O 0.5 0.6639999747276306 0.625
O16 O 0.5 0.6639999747276306 0.875
O17 O 0.0 0.335999995470047 0.125
O18 O 0.0 0.335999995470047 0.375
O19 O 0.0 0.335999995470047 0.625
O20 O 0.0 0.335999995470047 0.875
O21 O 0.0 0.8360000252723694 0.125
O22 O 0.0 0.8360000252723694 0.375
O23 O 0.0 0.8360000252723694 0.625
O24 O 0.0 0.8360000252723694 0.875
O25 O 0.5 0.335999995470047 0.125
O26 O 0.5 0.335999995470047 0.375
O27 O 0.5 0.335999995470047 0.625
O28 O 0.5 0.335999995470047 0.875
O29 O 0.5 0.8360000252723694 0.125
O30 O 0.5 0.8360000252723694 0.375
O31 O 0.5 0.8360000252723694 0.625
O32 O 0.5 0.8360000252723694 0.875
O33 O 0.00494999997317791 0.1339000016450882 0.0466499999165535
O34 O 0.00494999997317791 0.1339000016450882 0.2966499924659729
O35 O 0.00494999997317791 0.1339000016450882 0.5466499924659729
O36 O 0.00494999997317791 0.1339000016450882 0.7966499924659729
O37 O 0.00494999997317791 0.633899986743927 0.0466499999165535
O38 O 0.00494999997317791 0.633899986743927 0.2966499924659729
O39 O 0.00494999997317791 0.633899986743927 0.5466499924659729
O40 O 0.00494999997317791 0.633899986743927 0.7966499924659729
O41 O 0.5049499869346619 0.1339000016450882 0.0466499999165535
O42 O 0.5049499869346619 0.1339000016450882 0.2966499924659729
O43 O 0.5049499869346619 0.1339000016450882 0.5466499924659729
O44 O 0.5049499869346619 0.1339000016450882 0.7966499924659729
O45 O 0.5049499869346619 0.633899986743927 0.0466499999165535
O46 O 0.5049499869346619 0.633899986743927 0.2966499924659729
O47 O 0.5049499869346619 0.633899986743927 0.5466499924659729
O48 O 0.5049499869346619 0.633899986743927 0.7966499924659729
O49 O 0.00494999997317791 0.366100013256073 0.0466499999165535
O50 O 0.00494999997317791 0.366100013256073 0.2966499924659729
O51 O 0.00494999997317791 0.366100013256073 0.5466499924659729
O52 O 0.00494999997317791 0.366100013256073 0.7966499924659729
O53 O 0.00494999997317791 0.866100013256073 0.0466499999165535
O54 O 0.00494999997317791 0.866100013256073 0.2966499924659729
O55 O 0.00494999997317791 0.866100013256073 0.5466499924659729
O56 O 0.00494999997317791 0.866100013256073 0.7966499924659729
O57 O 0.5049499869346619 0.366100013256073 0.0466499999165535
O58 O 0.5049499869346619 0.366100013256073 0.2966499924659729
O59 O 0.5049499869346619 0.366100013256073 0.5466499924659729
O60 O 0.5049499869346619 0.366100013256073 0.7966499924659729
O61 O 0.5049499869346619 0.866100013256073 0.0466499999165535
O62 O 0.5049499869346619 0.866100013256073 0.2966499924659729
O63 O 0.5049499869346619 0.866100013256073 0.5466499924659729
O64 O 0.5049499869346619 0.866100013256073 0.7966499924659729
O65 O 0.04149999842047691 0.08124999701976776 0.01627499982714653
O66 O 0.04149999842047691 0.08124999701976776 0.26627498865127563
O67 O 0.04149999842047691 0.08124999701976776 0.5162749886512756
O68 O 0.04149999842047691 0.08124999701976776 0.7662749886512756
O69 O 0.04149999842047691 0.581250011920929 0.01627499982714653
O70 O 0.04149999842047691 0.581250011920929 0.26627498865127563
O71 O 0.04149999842047691 0.581250011920929 0.5162749886512756
O72 O 0.04149999842047691 0.581250011920929 0.7662749886512756
O73 O 0.5414999723434448 0.08124999701976776 0.01627499982714653
O74 O 0.5414999723434448 0.08124999701976776 0.26627498865127563
O75 O 0.5414999723434448 0.08124999701976776 0.5162749886512756
O76 O 0.5414999723434448 0.08124999701976776 0.7662749886512756
O77 O 0.5414999723434448 0.581250011920929 0.01627499982714653
O78 O 0.5414999723434448 0.581250011920929 0.26627498865127563
O79 O 0.5414999723434448 0.581250011920929 0.5162749886512756
O80 O 0.5414999723434448 0.581250011920929 0.7662749886512756
O81 O 0.04149999842047691 0.41874998807907104 0.01627499982714653
O82 O 0.04149999842047691 0.41874998807907104 0.26627498865127563
O83 O 0.04149999842047691 0.41874998807907104 0.5162749886512756
O84 O 0.04149999842047691 0.41874998807907104 0.7662749886512756
O85 O 0.04149999842047691 0.918749988079071 0.01627499982714653
O86 O 0.04149999842047691 0.918749988079071 0.26627498865127563
O87 O 0.04149999842047691 0.918749988079071 0.5162749886512756
O88 O 0.04149999842047691 0.918749988079071 0.7662749886512756
O89 O 0.5414999723434448 0.41874998807907104 0.01627499982714653
O90 O 0.5414999723434448 0.41874998807907104 0.26627498865127563
O91 O 0.5414999723434448 0.41874998807907104 0.5162749886512756
O92 O 0.5414999723434448 0.41874998807907104 0.7662749886512756
O93 O 0.5414999723434448 0.918749988079071 0.01627499982714653
O94 O 0.5414999723434448 0.918749988079071 0.26627498865127563
O95 O 0.5414999723434448 0.918749988079071 0.5162749886512756
O96 O 0.5414999723434448 0.918749988079071 0.7662749886512756
O97 O 0.060600001364946365 0.11514999717473984 0.13802500069141388
O98 O 0.060600001364946365 0.11514999717473984 0.3880249857902527
O99 O 0.060600001364946365 0.11514999717473984 0.6380249857902527
O100 O 0.060600001364946365 0.11514999717473984 0.8880249857902527
O101 O 0.060600001364946365 0.615149974822998 0.13802500069141388
O102 O 0.060600001364946365 0.615149974822998 0.3880249857902527
O103 O 0.060600001364946365 0.615149974822998 0.6380249857902527
O104 O 0.060600001364946365 0.615149974822998 0.8880249857902527
O105 O 0.5605999827384949 0.11514999717473984 0.13802500069141388
O106 O 0.5605999827384949 0.11514999717473984 0.3880249857902527
O107 O 0.5605999827384949 0.11514999717473984 0.6380249857902527
O108 O 0.5605999827384949 0.11514999717473984 0.8880249857902527
O109 O 0.5605999827384949 0.615149974822998 0.13802500069141388
O110 O 0.5605999827384949 0.615149974822998 0.3880249857902527
O111 O 0.5605999827384949 0.615149974822998 0.6380249857902527
O112 O 0.5605999827384949 0.615149974822998 0.8880249857902527
O113 O 0.060600001364946365 0.38484999537467957 0.13802500069141388
O114 O 0.060600001364946365 0.38484999537467957 0.3880249857902527
O115 O 0.060600001364946365 0.38484999537467957 0.6380249857902527
O116 O 0.060600001364946365 0.38484999537467957 0.8880249857902527
O117 O 0.060600001364946365 0.884850025177002 0.13802500069141388
O118 O 0.060600001364946365 0.884850025177002 0.3880249857902527
O119 O 0.060600001364946365 0.884850025177002 0.6380249857902527
O120 O 0.060600001364946365 0.884850025177002 0.8880249857902527
O121 O 0.5605999827384949 0.38484999537467957 0.13802500069141388
O122 O 0.5605999827384949 0.38484999537467957 0.3880249857902527
O123 O 0.5605999827384949 0.38484999537467957 0.6380249857902527
O124 O 0.5605999827384949 0.38484999537467957 0.8880249857902527
O125 O 0.5605999827384949 0.884850025177002 0.13802500069141388
O126 O 0.5605999827384949 0.884850025177002 0.3880249857902527
O127 O 0.5605999827384949 0.884850025177002 0.6380249857902527
O128 O 0.5605999827384949 0.884850025177002 0.8880249857902527
O129 O 0.06224999949336052 0.18324999511241913 0.10282500088214874
O130 O 0.06224999949336052 0.18324999511241913 0.35282498598098755
O131 O 0.06224999949336052 0.18324999511241913 0.6028249859809875
O132 O 0.06224999949336052 0.18324999511241913 0.8528249859809875
O133 O 0.06224999949336052 0.6832500100135803 0.10282500088214874
O134 O 0.06224999949336052 0.6832500100135803 0.35282498598098755
O135 O 0.06224999949336052 0.6832500100135803 0.6028249859809875
O136 O 0.06224999949336052 0.6832500100135803 0.8528249859809875
O137 O 0.562250018119812 0.18324999511241913 0.10282500088214874
O138 O 0.562250018119812 0.18324999511241913 0.35282498598098755
O139 O 0.562250018119812 0.18324999511241913 0.6028249859809875
O140 O 0.562250018119812 0.18324999511241913 0.8528249859809875
O141 O 0.562250018119812 0.6832500100135803 0.10282500088214874
O142 O 0.562250018119812 0.6832500100135803 0.35282498598098755
O143 O 0.562250018119812 0.6832500100135803 0.6028249859809875
O144 O 0.562250018119812 0.6832500100135803 0.8528249859809875
O145 O 0.06224999949336052 0.3167499899864197 0.10282500088214874
O146 O 0.06224999949336052 0.3167499899864197 0.35282498598098755
O147 O 0.06224999949336052 0.3167499899864197 0.6028249859809875
O148 O 0.06224999949336052 0.3167499899864197 0.8528249859809875
O149 O 0.06224999949336052 0.8167499899864197 0.10282500088214874
O150 O 0.06224999949336052 0.8167499899864197 0.35282498598098755
O151 O 0.06224999949336052 0.8167499899864197 0.6028249859809875
O152 O 0.06224999949336052 0.8167499899864197 0.8528249859809875
O153 O 0.562250018119812 0.3167499899864197 0.10282500088214874
O154 O 0.562250018119812 0.3167499899864197 0.35282498598098755
O155 O 0.562250018119812 0.3167499899864197 0.6028249859809875
O156 O 0.562250018119812 0.3167499899864197 0.8528249859809875
O157 O 0.562250018119812 0.8167499899864197 0.10282500088214874
O158 O 0.562250018119812 0.8167499899864197 0.35282498598098755
O159 O 0.562250018119812 0.8167499899864197 0.6028249859809875
O160 O 0.562250018119812 0.8167499899864197 0.8528249859809875
O161 O 0.09375 0.07859999686479568 0.22419999539852142
O162 O 0.09375 0.07859999686479568 0.4742000102996826
O163 O 0.09375 0.07859999686479568 0.7242000102996826
O164 O 0.09375 0.07859999686479568 0.9742000102996826
O165 O 0.09375 0.5785999894142151 0.22419999539852142
O166 O 0.09375 0.5785999894142151 0.4742000102996826
O167 O 0.09375 0.5785999894142151 0.7242000102996826
O168 O 0.09375 0.5785999894142151 0.9742000102996826
O169 O 0.59375 0.07859999686479568 0.22419999539852142
O170 O 0.59375 0.07859999686479568 0.4742000102996826
O171 O 0.59375 0.07859999686479568 0.7242000102996826
O172 O 0.59375 0.07859999686479568 0.9742000102996826
O173 O 0.59375 0.5785999894142151 0.22419999539852142
O174 O 0.59375 0.5785999894142151 0.4742000102996826
O175 O 0.59375 0.5785999894142151 0.7242000102996826
O176 O 0.59375 0.5785999894142151 0.9742000102996826
O177 O 0.09375 0.4214000105857849 0.22419999539852142
O178 O 0.09375 0.4214000105857849 0.4742000102996826
O179 O 0.09375 0.4214000105857849 0.7242000102996826
O180 O 0.09375 0.4214000105857849 0.9742000102996826
O181 O 0.09375 0.9214000105857849 0.22419999539852142
O182 O 0.09375 0.9214000105857849 0.4742000102996826
O183 O 0.09375 0.9214000105857849 0.7242000102996826
O184 O 0.09375 0.9214000105857849 0.9742000102996826
O185 O 0.59375 0.4214000105857849 0.22419999539852142
O186 O 0.59375 0.4214000105857849 0.4742000102996826
O187 O 0.59375 0.4214000105857849 0.7242000102996826
O188 O 0.59375 0.4214000105857849 0.9742000102996826
O189 O 0.59375 0.9214000105857849 0.22419999539852142
O190 O 0.59375 0.9214000105857849 0.4742000102996826
O191 O 0.59375 0.9214000105857849 0.7242000102996826
O192 O 0.59375 0.9214000105857849 0.9742000102996826
O193 O 0.09844999760389328 0.25 0.11400000005960464
O194 O 0.09844999760389328 0.25 0.36399999260902405
O195 O 0.09844999760389328 0.25 0.6140000224113464
O196 O 0.09844999760389328 0.25 0.8640000224113464
O197 O 0.09844999760389328 0.75 0.11400000005960464
O198 O 0.09844999760389328 0.75 0.36399999260902405
O199 O 0.09844999760389328 0.75 0.6140000224113464
O200 O 0.09844999760389328 0.75 0.8640000224113464
O201 O 0.5984500050544739 0.25 0.11400000005960464
O202 O 0.5984500050544739 0.25 0.36399999260902405
O203 O 0.5984500050544739 0.25 0.6140000224113464
O204 O 0.5984500050544739 0.25 0.8640000224113464
O205 O 0.5984500050544739 0.75 0.11400000005960464
O206 O 0.5984500050544739 0.75 0.36399999260902405
O207 O 0.5984500050544739 0.75 0.6140000224113464
O208 O 0.5984500050544739 0.75 0.8640000224113464
O209 O 0.1088000014424324 0.1253499984741211 0.04935000091791153
O210 O 0.1088000014424324 0.1253499984741211 0.29934999346733093
O211 O 0.1088000014424324 0.1253499984741211 0.5493500232696533
O212 O 0.1088000014424324 0.1253499984741211 0.7993500232696533
O213 O 0.1088000014424324 0.6253499984741211 0.04935000091791153
O214 O 0.1088000014424324 0.6253499984741211 0.29934999346733093
O215 O 0.1088000014424324 0.6253499984741211 0.5493500232696533
O216 O 0.1088000014424324 0.6253499984741211 0.7993500232696533
O217 O 0.6087999939918518 0.1253499984741211 0.04935000091791153
O218 O 0.6087999939918518 0.1253499984741211 0.29934999346733093
O219 O 0.6087999939918518 0.1253499984741211 0.5493500232696533
O220 O 0.6087999939918518 0.1253499984741211 0.7993500232696533
O221 O 0.6087999939918518 0.6253499984741211 0.04935000091791153
O222 O 0.6087999939918518 0.6253499984741211 0.29934999346733093
O223 O 0.6087999939918518 0.6253499984741211 0.5493500232696533
O224 O 0.6087999939918518 0.6253499984741211 0.7993500232696533
O225 O 0.1088000014424324 0.3746500015258789 0.04935000091791153
O226 O 0.1088000014424324 0.3746500015258789 0.29934999346733093
O227 O 0.1088000014424324 0.3746500015258789 0.5493500232696533
O228 O 0.1088000014424324 0.3746500015258789 0.7993500232696533
O229 O 0.1088000014424324 0.8746500015258789 0.04935000091791153
O230 O 0.1088000014424324 0.8746500015258789 0.29934999346733093
O231 O 0.1088000014424324 0.8746500015258789 0.5493500232696533
O232 O 0.1088000014424324 0.8746500015258789 0.7993500232696533
O233 O 0.6087999939918518 0.3746500015258789 0.04935000091791153
O234 O 0.6087999939918518 0.3746500015258789 0.29934999346733093
O235 O 0.6087999939918518 0.3746500015258789 0.5493500232696533
O236 O 0.6087999939918518 0.3746500015258789 0.7993500232696533
O237 O 0.6087999939918518 0.8746500015258789 0.04935000091791153
O238 O 0.6087999939918518 0.8746500015258789 0.29934999346733093
O239 O 0.6087999939918518 0.8746500015258789 0.5493500232696533
O240 O 0.6087999939918518 0.8746500015258789 0.7993500232696533
O241 O 0.11514999717473984 0.06004999950528145 0.15254999697208405
O242 O 0.11514999717473984 0.06004999950528145 0.40255001187324524
O243 O 0.11514999717473984 0.06004999950528145 0.6525499820709229
O244 O 0.11514999717473984 0.06004999950528145 0.9025499820709229
O245 O 0.11514999717473984 0.5600500106811523 0.15254999697208405
O246 O 0.11514999717473984 0.5600500106811523 0.40255001187324524
O247 O 0.11514999717473984 0.5600500106811523 0.6525499820709229
O248 O 0.11514999717473984 0.5600500106811523 0.9025499820709229
O249 O 0.615149974822998 0.06004999950528145 0.15254999697208405
O250 O 0.615149974822998 0.06004999950528145 0.40255001187324524
O251 O 0.615149974822998 0.06004999950528145 0.6525499820709229
O252 O 0.615149974822998 0.06004999950528145 0.9025499820709229
O253 O 0.615149974822998 0.5600500106811523 0.15254999697208405
O254 O 0.615149974822998 0.5600500106811523 0.40255001187324524
O255 O 0.615149974822998 0.5600500106811523 0.6525499820709229
O256 O 0.615149974822998 0.5600500106811523 0.9025499820709229
O257 O 0.11514999717473984 0.43994998931884766 0.15254999697208405
O258 O 0.11514999717473984 0.43994998931884766 0.40255001187324524
O259 O 0.11514999717473984 0.43994998931884766 0.6525499820709229
O260 O 0.11514999717473984 0.43994998931884766 0.9025499820709229
O261 O 0.11514999717473984 0.9399499893188477 0.15254999697208405
O262 O 0.11514999717473984 0.9399499893188477 0.40255001187324524
O263 O 0.11514999717473984 0.9399499893188477 0.6525499820709229
O264 O 0.11514999717473984 0.9399499893188477 0.9025499820709229
O265 O 0.615149974822998 0.43994998931884766 0.15254999697208405
O266 O 0.615149974822998 0.43994998931884766 0.40255001187324524
O267 O 0.615149974822998 0.43994998931884766 0.6525499820709229
O268 O 0.615149974822998 0.43994998931884766 0.9025499820709229
O269 O 0.615149974822998 0.9399499893188477 0.15254999697208405
O270 O 0.615149974822998 0.9399499893188477 0.40255001187324524
O271 O 0.615149974822998 0.9399499893188477 0.6525499820709229
O272 O 0.615149974822998 0.9399499893188477 0.9025499820709229
O273 O 0.1177000030875206 0.05195000022649765 0.06565000116825104
O274 O 0.1177000030875206 0.05195000022649765 0.31564998626708984
O275 O 0.1177000030875206 0.05195000022649765 0.5656499862670898
O276 O 0.1177000030875206 0.05195000022649765 0.8156499862670898
O277 O 0.1177000030875206 0.5519499778747559 0.06565000116825104
O278 O 0.1177000030875206 0.5519499778747559 0.31564998626708984
O279 O 0.1177000030875206 0.5519499778747559 0.5656499862670898
O280 O 0.1177000030875206 0.5519499778747559 0.8156499862670898
O281 O 0.6176999807357788 0.05195000022649765 0.06565000116825104
O282 O 0.6176999807357788 0.05195000022649765 0.31564998626708984
O283 O 0.6176999807357788 0.05195000022649765 0.5656499862670898
O284 O 0.6176999807357788 0.05195000022649765 0.8156499862670898
O285 O 0.6176999807357788 0.5519499778747559 0.06565000116825104
O286 O 0.6176999807357788 0.5519499778747559 0.31564998626708984
O287 O 0.6176999807357788 0.5519499778747559 0.5656499862670898
O288 O 0.6176999807357788 0.5519499778747559 0.8156499862670898
O289 O 0.1177000030875206 0.44804999232292175 0.06565000116825104
O290 O 0.1177000030875206 0.44804999232292175 0.31564998626708984
O291 O 0.1177000030875206 0.44804999232292175 0.5656499862670898
O292 O 0.1177000030875206 0.44804999232292175 0.8156499862670898
O293 O 0.1177000030875206 0.9480500221252441 0.06565000116825104
O294 O 0.1177000030875206 0.9480500221252441 0.31564998626708984
O295 O 0.1177000030875206 0.9480500221252441 0.5656499862670898
O296 O 0.1177000030875206 0.9480500221252441 0.8156499862670898
O297 O 0.6176999807357788 0.44804999232292175 0.06565000116825104
O298 O 0.6176999807357788 0.44804999232292175 0.31564998626708984
O299 O 0.6176999807357788 0.44804999232292175 0.5656499862670898
O300 O 0.6176999807357788 0.44804999232292175 0.8156499862670898
O301 O 0.6176999807357788 0.9480500221252441 0.06565000116825104
O302 O 0.6176999807357788 0.9480500221252441 0.31564998626708984
O303 O 0.6176999807357788 0.9480500221252441 0.5656499862670898
O304 O 0.6176999807357788 0.9480500221252441 0.8156499862670898
O305 O 0.13230000436306 0.19805000722408295 0.18434999883174896
O306 O 0.13230000436306 0.19805000722408295 0.43435001373291016
O307 O 0.13230000436306 0.19805000722408295 0.6843500137329102
O308 O 0.13230000436306 0.19805000722408295 0.9343500137329102
O309 O 0.13230000436306 0.6980500221252441 0.18434999883174896
O310 O 0.13230000436306 0.6980500221252441 0.43435001373291016
O311 O 0.13230000436306 0.6980500221252441 0.6843500137329102
O312 O 0.13230000436306 0.6980500221252441 0.9343500137329102
O313 O 0.6323000192642212 0.19805000722408295 0.18434999883174896
O314 O 0.6323000192642212 0.19805000722408295 0.43435001373291016
O315 O 0.6323000192642212 0.19805000722408295 0.6843500137329102
O316 O 0.6323000192642212 0.19805000722408295 0.9343500137329102
O317 O 0.6323000192642212 0.6980500221252441 0.18434999883174896
O318 O 0.6323000192642212 0.6980500221252441 0.43435001373291016
O319 O 0.6323000192642212 0.6980500221252441 0.6843500137329102
O320 O 0.6323000192642212 0.6980500221252441 0.9343500137329102
O321 O 0.13230000436306 0.30195000767707825 0.18434999883174896
O322 O 0.13230000436306 0.30195000767707825 0.43435001373291016
O323 O 0.13230000436306 0.30195000767707825 0.6843500137329102
O324 O 0.13230000436306 0.30195000767707825 0.9343500137329102
O325 O 0.13230000436306 0.8019499778747559 0.18434999883174896
O326 O 0.13230000436306 0.8019499778747559 0.43435001373291016
O327 O 0.13230000436306 0.8019499778747559 0.6843500137329102
O328 O 0.13230000436306 0.8019499778747559 0.9343500137329102
O329 O 0.6323000192642212 0.30195000767707825 0.18434999883174896
O330 O 0.6323000192642212 0.30195000767707825 0.43435001373291016
O331 O 0.6323000192642212 0.30195000767707825 0.6843500137329102
O332 O 0.6323000192642212 0.30195000767707825 0.9343500137329102
O333 O 0.6323000192642212 0.8019499778747559 0.18434999883174896
O334 O 0.6323000192642212 0.8019499778747559 0.43435001373291016
O335 O 0.6323000192642212 0.8019499778747559 0.6843500137329102
O336 O 0.6323000192642212 0.8019499778747559 0.9343500137329102
O337 O 0.13484999537467957 0.18995000422000885 0.09745000302791595
O338 O 0.13484999537467957 0.18995000422000885 0.34744998812675476
O339 O 0.13484999537467957 0.18995000422000885 0.5974500179290771
O340 O 0.13484999537467957 0.18995000422000885 0.8474500179290771
O341 O 0.13484999537467957 0.6899499893188477 0.09745000302791595
O342 O 0.13484999537467957 0.6899499893188477 0.34744998812675476
O343 O 0.13484999537467957 0.6899499893188477 0.5974500179290771
O344 O 0.13484999537467957 0.6899499893188477 0.8474500179290771
O345 O 0.634850025177002 0.18995000422000885 0.09745000302791595
O346 O 0.634850025177002 0.18995000422000885 0.34744998812675476
O347 O 0.634850025177002 0.18995000422000885 0.5974500179290771
O348 O 0.634850025177002 0.18995000422000885 0.8474500179290771
O349 O 0.634850025177002 0.6899499893188477 0.09745000302791595
O350 O 0.634850025177002 0.6899499893188477 0.34744998812675476
O351 O 0.634850025177002 0.6899499893188477 0.5974500179290771
O352 O 0.634850025177002 0.6899499893188477 0.8474500179290771
O353 O 0.13484999537467957 0.31005001068115234 0.09745000302791595
O354 O 0.13484999537467957 0.31005001068115234 0.34744998812675476
O355 O 0.13484999537467957 0.31005001068115234 0.5974500179290771
O356 O 0.13484999537467957 0.31005001068115234 0.8474500179290771
O357 O 0.13484999537467957 0.8100500106811523 0.09745000302791595
O358 O 0.13484999537467957 0.8100500106811523 0.34744998812675476
O359 O 0.13484999537467957 0.8100500106811523 0.5974500179290771
O360 O 0.13484999537467957 0.8100500106811523 0.8474500179290771
O361 O 0.634850025177002 0.31005001068115234 0.09745000302791595
O362 O 0.634850025177002 0.31005001068115234 0.34744998812675476
O363 O 0.634850025177002 0.31005001068115234 0.5974500179290771
O364 O 0.634850025177002 0.31005001068115234 0.8474500179290771
O365 O 0.634850025177002 0.8100500106811523 0.09745000302791595
O366 O 0.634850025177002 0.8100500106811523 0.34744998812675476
O367 O 0.634850025177002 0.8100500106811523 0.5974500179290771
O368 O 0.634850025177002 0.8100500106811523 0.8474500179290771
O369 O 0.1412000060081482 0.1246500015258789 0.20065000653266907
O370 O 0.1412000060081482 0.1246500015258789 0.45065000653266907
O371 O 0.1412000060081482 0.1246500015258789 0.7006499767303467
O372 O 0.1412000060081482 0.1246500015258789 0.9506499767303467
O373 O 0.1412000060081482 0.6246500015258789 0.20065000653266907
O374 O 0.1412000060081482 0.6246500015258789 0.45065000653266907
O375 O 0.1412000060081482 0.6246500015258789 0.7006499767303467
O376 O 0.1412000060081482 0.6246500015258789 0.9506499767303467
O377 O 0.6412000060081482 0.1246500015258789 0.20065000653266907
O378 O 0.6412000060081482 0.1246500015258789 0.45065000653266907
O379 O 0.6412000060081482 0.1246500015258789 0.7006499767303467
O380 O 0.6412000060081482 0.1246500015258789 0.9506499767303467
O381 O 0.6412000060081482 0.6246500015258789 0.20065000653266907
O382 O 0.6412000060081482 0.6246500015258789 0.45065000653266907
O383 O 0.6412000060081482 0.6246500015258789 0.7006499767303467
O384 O 0.6412000060081482 0.6246500015258789 0.9506499767303467
O385 O 0.1412000060081482 0.3753499984741211 0.20065000653266907
O386 O 0.1412000060081482 0.3753499984741211 0.45065000653266907
O387 O 0.1412000060081482 0.3753499984741211 0.7006499767303467
O388 O 0.1412000060081482 0.3753499984741211 0.9506499767303467
O389 O 0.1412000060081482 0.8753499984741211 0.20065000653266907
O390 O 0.1412000060081482 0.8753499984741211 0.45065000653266907
O391 O 0.1412000060081482 0.8753499984741211 0.7006499767303467
O392 O 0.1412000060081482 0.8753499984741211 0.9506499767303467
O393 O 0.6412000060081482 0.3753499984741211 0.20065000653266907
O394 O 0.6412000060081482 0.3753499984741211 0.45065000653266907
O395 O 0.6412000060081482 0.3753499984741211 0.7006499767303467
O396 O 0.6412000060081482 0.3753499984741211 0.9506499767303467
O397 O 0.6412000060081482 0.8753499984741211 0.20065000653266907
O398 O 0.6412000060081482 0.8753499984741211 0.45065000653266907
O399 O 0.6412000060081482 0.8753499984741211 0.7006499767303467
O400 O 0.6412000060081482 0.8753499984741211 0.9506499767303467
O401 O 0.15154999494552612 0.0 0.13600000739097595
O402 O 0.15154999494552612 0.0 0.38600000739097595
O403 O 0.15154999494552612 0.0 0.6359999775886536
O404 O 0.15154999494552612 0.0 0.8859999775886536
O405 O 0.15154999494552612 0.5 0.13600000739097595
O406 O 0.15154999494552612 0.5 0.38600000739097595
O407 O 0.15154999494552612 0.5 0.6359999775886536
O408 O 0.15154999494552612 0.5 0.8859999775886536
O409 O 0.6515499949455261 0.0 0.13600000739097595
O410 O 0.6515499949455261 0.0 0.38600000739097595
O411 O 0.6515499949455261 0.0 0.6359999775886536
O412 O 0.6515499949455261 0.0 0.8859999775886536
O413 O 0.6515499949455261 0.5 0.13600000739097595
O414 O 0.6515499949455261 0.5 0.38600000739097595
O415 O 0.6515499949455261 0.5 0.6359999775886536
O416 O 0.6515499949455261 0.5 0.8859999775886536
O417 O 0.15154999494552612 0.5 0.13600000739097595
O418 O 0.15154999494552612 0.5 0.38600000739097595
O419 O 0.15154999494552612 0.5 0.6359999775886536
O420 O 0.15154999494552612 0.5 0.8859999775886536
O421 O 0.15154999494552612 1.0 0.13600000739097595
O422 O 0.15154999494552612 1.0 0.38600000739097595
O423 O 0.15154999494552612 1.0 0.6359999775886536
O424 O 0.15154999494552612 1.0 0.8859999775886536
O425 O 0.6515499949455261 0.5 0.13600000739097595
O426 O 0.6515499949455261 0.5 0.38600000739097595
O427 O 0.6515499949455261 0.5 0.6359999775886536
O428 O 0.6515499949455261 0.5 0.8859999775886536
O429 O 0.6515499949455261 1.0 0.13600000739097595
O430 O 0.6515499949455261 1.0 0.38600000739097595
O431 O 0.6515499949455261 1.0 0.6359999775886536
O432 O 0.6515499949455261 1.0 0.8859999775886536
O433 O 0.15625 0.17139999568462372 0.025800000876188278
O434 O 0.15625 0.17139999568462372 0.2757999897003174
O435 O 0.15625 0.17139999568462372 0.5257999897003174
O436 O 0.15625 0.17139999568462372 0.7757999897003174
O437 O 0.15625 0.6714000105857849 0.025800000876188278
O438 O 0.15625 0.6714000105857849 0.2757999897003174
O439 O 0.15625 0.6714000105857849 0.5257999897003174
O440 O 0.15625 0.6714000105857849 0.7757999897003174
O441 O 0.65625 0.17139999568462372 0.025800000876188278
O442 O 0.65625 0.17139999568462372 0.2757999897003174
O443 O 0.65625 0.17139999568462372 0.5257999897003174
O444 O 0.65625 0.17139999568462372 0.7757999897003174
O445 O 0.65625 0.6714000105857849 0.025800000876188278
O446 O 0.65625 0.6714000105857849 0.2757999897003174
O447 O 0.65625 0.6714000105857849 0.5257999897003174
O448 O 0.65625 0.6714000105857849 0.7757999897003174
O449 O 0.15625 0.3285999894142151 0.025800000876188278
O450 O 0.15625 0.3285999894142151 0.2757999897003174
O451 O 0.15625 0.3285999894142151 0.5257999897003174
O452 O 0.15625 0.3285999894142151 0.7757999897003174
O453 O 0.15625 0.8285999894142151 0.025800000876188278
O454 O 0.15625 0.8285999894142151 0.2757999897003174
O455 O 0.15625 0.8285999894142151 0.5257999897003174
O456 O 0.15625 0.8285999894142151 0.7757999897003174
O457 O 0.65625 0.3285999894142151 0.025800000876188278
O458 O 0.65625 0.3285999894142151 0.2757999897003174
O459 O 0.65625 0.3285999894142151 0.5257999897003174
O460 O 0.65625 0.3285999894142151 0.7757999897003174
O461 O 0.65625 0.8285999894142151 0.025800000876188278
O462 O 0.65625 0.8285999894142151 0.2757999897003174
O463 O 0.65625 0.8285999894142151 0.5257999897003174
O464 O 0.65625 0.8285999894142151 0.7757999897003174
O465 O 0.18774999678134918 0.06674999743700027 0.14717499911785126
O466 O 0.18774999678134918 0.06674999743700027 0.39717501401901245
O467 O 0.18774999678134918 0.06674999743700027 0.6471750140190125
O468 O 0.18774999678134918 0.06674999743700027 0.8971750140190125
O469 O 0.18774999678134918 0.5667499899864197 0.14717499911785126
O470 O 0.18774999678134918 0.5667499899864197 0.39717501401901245
O471 O 0.18774999678134918 0.5667499899864197 0.6471750140190125
O472 O 0.18774999678134918 0.5667499899864197 0.8971750140190125
O473 O 0.687749981880188 0.06674999743700027 0.14717499911785126
O474 O 0.687749981880188 0.06674999743700027 0.39717501401901245
O475 O 0.687749981880188 0.06674999743700027 0.6471750140190125
O476 O 0.687749981880188 0.06674999743700027 0.8971750140190125
O477 O 0.687749981880188 0.5667499899864197 0.14717499911785126
O478 O 0.687749981880188 0.5667499899864197 0.39717501401901245
O479 O 0.687749981880188 0.5667499899864197 0.6471750140190125
O480 O 0.687749981880188 0.5667499899864197 0.8971750140190125
O481 O 0.18774999678134918 0.4332500100135803 0.14717499911785126
O482 O 0.18774999678134918 0.4332500100135803 0.39717501401901245
O483 O 0.18774999678134918 0.4332500100135803 0.6471750140190125
O484 O 0.18774999678134918 0.4332500100135803 0.8971750140190125
O485 O 0.18774999678134918 0.9332500100135803 0.14717499911785126
O486 O 0.18774999678134918 0.9332500100135803 0.39717501401901245
O487 O 0.18774999678134918 0.9332500100135803 0.6471750140190125
O488 O 0.18774999678134918 0.9332500100135803 0.8971750140190125
O489 O 0.687749981880188 0.4332500100135803 0.14717499911785126
O490 O 0.687749981880188 0.4332500100135803 0.39717501401901245
O491 O 0.687749981880188 0.4332500100135803 0.6471750140190125
O492 O 0.687749981880188 0.4332500100135803 0.8971750140190125
O493 O 0.687749981880188 0.9332500100135803 0.14717499911785126
O494 O 0.687749981880188 0.9332500100135803 0.39717501401901245
O495 O 0.687749981880188 0.9332500100135803 0.6471750140190125
O496 O 0.687749981880188 0.9332500100135803 0.8971750140190125
O497 O 0.18940000236034393 0.13484999537467957 0.11197499930858612
O498 O 0.18940000236034393 0.13484999537467957 0.3619750142097473
O499 O 0.18940000236034393 0.13484999537467957 0.6119750142097473
O500 O 0.18940000236034393 0.13484999537467957 0.8619750142097473
O501 O 0.18940000236034393 0.634850025177002 0.11197499930858612
O502 O 0.18940000236034393 0.634850025177002 0.3619750142097473
O503 O 0.18940000236034393 0.634850025177002 0.6119750142097473
O504 O 0.18940000236034393 0.634850025177002 0.8619750142097473
O505 O 0.6894000172615051 0.13484999537467957 0.11197499930858612
O506 O 0.6894000172615051 0.13484999537467957 0.3619750142097473
O507 O 0.6894000172615051 0.13484999537467957 0.6119750142097473
O508 O 0.6894000172615051 0.13484999537467957 0.8619750142097473
O509 O 0.6894000172615051 0.634850025177002 0.11197499930858612
O510 O 0.6894000172615051 0.634850025177002 0.3619750142097473
O511 O 0.6894000172615051 0.634850025177002 0.6119750142097473
O512 O 0.6894000172615051 0.634850025177002 0.8619750142097473
O513 O 0.18940000236034393 0.36515000462532043 0.11197499930858612
O514 O 0.18940000236034393 0.36515000462532043 0.3619750142097473
O515 O 0.18940000236034393 0.36515000462532043 0.6119750142097473
O516 O 0.18940000236034393 0.36515000462532043 0.8619750142097473
O517 O 0.18940000236034393 0.865149974822998 0.11197499930858612
O518 O 0.18940000236034393 0.865149974822998 0.3619750142097473
O519 O 0.18940000236034393 0.865149974822998 0.6119750142097473
O520 O 0.18940000236034393 0.865149974822998 0.8619750142097473
O521 O 0.6894000172615051 0.36515000462532043 0.11197499930858612
O522 O 0.6894000172615051 0.36515000462532043 0.3619750142097473
O523 O 0.6894000172615051 0.36515000462532043 0.6119750142097473
O524 O 0.6894000172615051 0.36515000462532043 0.8619750142097473
O525 O 0.6894000172615051 0.865149974822998 0.11197499930858612
O526 O 0.6894000172615051 0.865149974822998 0.3619750142097473
O527 O 0.6894000172615051 0.865149974822998 0.6119750142097473
O528 O 0.6894000172615051 0.865149974822998 0.8619750142097473
O529 O 0.2084999978542328 0.16875000298023224 0.23372499644756317
O530 O 0.2084999978542328 0.16875000298023224 0.48372501134872437
O531 O 0.2084999978542328 0.16875000298023224 0.7337250113487244
O532 O 0.2084999978542328 0.16875000298023224 0.9837250113487244
O533 O 0.2084999978542328 0.668749988079071 0.23372499644756317
O534 O 0.2084999978542328 0.668749988079071 0.48372501134872437
O535 O 0.2084999978542328 0.668749988079071 0.7337250113487244
O536 O 0.2084999978542328 0.668749988079071 0.9837250113487244
O537 O 0.7085000276565552 0.16875000298023224 0.23372499644756317
O538 O 0.7085000276565552 0.16875000298023224 0.48372501134872437
O539 O 0.7085000276565552 0.16875000298023224 0.7337250113487244
O540 O 0.7085000276565552 0.16875000298023224 0.9837250113487244
O541 O 0.7085000276565552 0.668749988079071 0.23372499644756317
O542 O 0.7085000276565552 0.668749988079071 0.48372501134872437
O543 O 0.7085000276565552 0.668749988079071 0.7337250113487244
O544 O 0.7085000276565552 0.668749988079071 0.9837250113487244
O545 O 0.2084999978542328 0.33125001192092896 0.23372499644756317
O546 O 0.2084999978542328 0.33125001192092896 0.48372501134872437
O547 O 0.2084999978542328 0.33125001192092896 0.7337250113487244
O548 O 0.2084999978542328 0.33125001192092896 0.9837250113487244
O549 O 0.2084999978542328 0.831250011920929 0.23372499644756317
O550 O 0.2084999978542328 0.831250011920929 0.48372501134872437
O551 O 0.2084999978542328 0.831250011920929 0.7337250113487244
O552 O 0.2084999978542328 0.831250011920929 0.9837250113487244
O553 O 0.7085000276565552 0.33125001192092896 0.23372499644756317
O554 O 0.7085000276565552 0.33125001192092896 0.48372501134872437
O555 O 0.7085000276565552 0.33125001192092896 0.7337250113487244
O556 O 0.7085000276565552 0.33125001192092896 0.9837250113487244
O557 O 0.7085000276565552 0.831250011920929 0.23372499644756317
O558 O 0.7085000276565552 0.831250011920929 0.48372501134872437
O559 O 0.7085000276565552 0.831250011920929 0.7337250113487244
O560 O 0.7085000276565552 0.831250011920929 0.9837250113487244
O561 O 0.24504999816417694 0.1160999983549118 0.2033499926328659
O562 O 0.24504999816417694 0.1160999983549118 0.4533500075340271
O563 O 0.24504999816417694 0.1160999983549118 0.7033500075340271
O564 O 0.24504999816417694 0.1160999983549118 0.9533500075340271
O565 O 0.24504999816417694 0.616100013256073 0.2033499926328659
O566 O 0.24504999816417694 0.616100013256073 0.4533500075340271
O567 O 0.24504999816417694 0.616100013256073 0.7033500075340271
O568 O 0.24504999816417694 0.616100013256073 0.9533500075340271
O569 O 0.7450500130653381 0.1160999983549118 0.2033499926328659
O570 O 0.7450500130653381 0.1160999983549118 0.4533500075340271
O571 O 0.7450500130653381 0.1160999983549118 0.7033500075340271
O572 O 0.7450500130653381 0.1160999983549118 0.9533500075340271
O573 O 0.7450500130653381 0.616100013256073 0.2033499926328659
O574 O 0.7450500130653381 0.616100013256073 0.4533500075340271
O575 O 0.7450500130653381 0.616100013256073 0.7033500075340271
O576 O 0.7450500130653381 0.616100013256073 0.9533500075340271
O577 O 0.24504999816417694 0.383899986743927 0.2033499926328659
O578 O 0.24504999816417694 0.383899986743927 0.4533500075340271
O579 O 0.24504999816417694 0.383899986743927 0.7033500075340271
O580 O 0.24504999816417694 0.383899986743927 0.9533500075340271
O581 O 0.24504999816417694 0.883899986743927 0.2033499926328659
O582 O 0.24504999816417694 0.883899986743927 0.4533500075340271
O583 O 0.24504999816417694 0.883899986743927 0.7033500075340271
O584 O 0.24504999816417694 0.883899986743927 0.9533500075340271
O585 O 0.7450500130653381 0.383899986743927 0.2033499926328659
O586 O 0.7450500130653381 0.383899986743927 0.4533500075340271
O587 O 0.7450500130653381 0.383899986743927 0.7033500075340271
O588 O 0.7450500130653381 0.383899986743927 0.9533500075340271
O589 O 0.7450500130653381 0.883899986743927 0.2033499926328659
O590 O 0.7450500130653381 0.883899986743927 0.4533500075340271
O591 O 0.7450500130653381 0.883899986743927 0.7033500075340271
O592 O 0.7450500130653381 0.883899986743927 0.9533500075340271
O593 O 0.25 0.0860000029206276 0.125
O594 O 0.25 0.0860000029206276 0.375
O595 O 0.25 0.0860000029206276 0.625
O596 O 0.25 0.0860000029206276 0.875
O597 O 0.25 0.5860000252723694 0.125
O598 O 0.25 0.5860000252723694 0.375
O599 O 0.25 0.5860000252723694 0.625
O600 O 0.25 0.5860000252723694 0.875
O601 O 0.75 0.0860000029206276 0.125
O602 O 0.75 0.0860000029206276 0.375
O603 O 0.75 0.0860000029206276 0.625
O604 O 0.75 0.0860000029206276 0.875
O605 O 0.75 0.5860000252723694 0.125
O606 O 0.75 0.5860000252723694 0.375
O607 O 0.75 0.5860000252723694 0.625
O608 O 0.75 0.5860000252723694 0.875
O609 O 0.25 0.414000004529953 0.125
O610 O 0.25 0.414000004529953 0.375
O611 O 0.25 0.414000004529953 0.625
O612 O 0.25 0.414000004529953 0.875
O613 O 0.25 0.9139999747276306 0.125
O614 O 0.25 0.9139999747276306 0.375
O615 O 0.25 0.9139999747276306 0.625
O616 O 0.25 0.9139999747276306 0.875
O617 O 0.75 0.414000004529953 0.125
O618 O 0.75 0.414000004529953 0.375
O619 O 0.75 0.414000004529953 0.625
O620 O 0.75 0.414000004529953 0.875
O621 O 0.75 0.9139999747276306 0.125
O622 O 0.75 0.9139999747276306 0.375
O623 O 0.75 0.9139999747276306 0.625
O624 O 0.75 0.9139999747276306 0.875
O625 O 0.25494998693466187 0.1160999983549118 0.0466499999165535
O626 O 0.25494998693466187 0.1160999983549118 0.2966499924659729
O627 O 0.25494998693466187 0.1160999983549118 0.5466499924659729
O628 O 0.25494998693466187 0.1160999983549118 0.7966499924659729
O629 O 0.25494998693466187 0.616100013256073 0.0466499999165535
O630 O 0.25494998693466187 0.616100013256073 0.2966499924659729
O631 O 0.25494998693466187 0.616100013256073 0.5466499924659729
O632 O 0.25494998693466187 0.616100013256073 0.7966499924659729
O633 O 0.7549499869346619 0.1160999983549118 0.0466499999165535
O634 O 0.7549499869346619 0.1160999983549118 0.2966499924659729
O635 O 0.7549499869346619 0.1160999983549118 0.5466499924659729
O636 O 0.7549499869346619 0.1160999983549118 0.7966499924659729
O637 O 0.7549499869346619 0.616100013256073 0.0466499999165535
O638 O 0.7549499869346619 0.616100013256073 0.2966499924659729
O639 O 0.7549499869346619 0.616100013256073 0.5466499924659729
O640 O 0.7549499869346619 0.616100013256073 0.7966499924659729
O641 O 0.25494998693466187 0.383899986743927 0.0466499999165535
O642 O 0.25494998693466187 0.383899986743927 0.2966499924659729
O643 O 0.25494998693466187 0.383899986743927 0.5466499924659729
O644 O 0.25494998693466187 0.383899986743927 0.7966499924659729
O645 O 0.25494998693466187 0.883899986743927 0.0466499999165535
O646 O 0.25494998693466187 0.883899986743927 0.2966499924659729
O647 O 0.25494998693466187 0.883899986743927 0.5466499924659729
O648 O 0.25494998693466187 0.883899986743927 0.7966499924659729
O649 O 0.7549499869346619 0.383899986743927 0.0466499999165535
O650 O 0.7549499869346619 0.383899986743927 0.2966499924659729
O651 O 0.7549499869346619 0.383899986743927 0.5466499924659729
O652 O 0.7549499869346619 0.383899986743927 0.7966499924659729
O653 O 0.7549499869346619 0.883899986743927 0.0466499999165535
O654 O 0.7549499869346619 0.883899986743927 0.2966499924659729
O655 O 0.7549499869346619 0.883899986743927 0.5466499924659729
O656 O 0.7549499869346619 0.883899986743927 0.7966499924659729
O657 O 0.2915000021457672 0.16875000298023224 0.01627499982714653
O658 O 0.2915000021457672 0.16875000298023224 0.26627498865127563
O659 O 0.2915000021457672 0.16875000298023224 0.5162749886512756
O660 O 0.2915000021457672 0.16875000298023224 0.7662749886512756
O661 O 0.2915000021457672 0.668749988079071 0.01627499982714653
O662 O 0.2915000021457672 0.668749988079071 0.26627498865127563
O663 O 0.2915000021457672 0.668749988079071 0.5162749886512756
O664 O 0.2915000021457672 0.668749988079071 0.7662749886512756
O665 O 0.7914999723434448 0.16875000298023224 0.01627499982714653
O666 O 0.7914999723434448 0.16875000298023224 0.26627498865127563
O667 O 0.7914999723434448 0.16875000298023224 0.5162749886512756
O668 O 0.7914999723434448 0.16875000298023224 0.7662749886512756
O669 O 0.7914999723434448 0.668749988079071 0.01627499982714653
O670 O 0.7914999723434448 0.668749988079071 0.26627498865127563
O671 O 0.7914999723434448 0.668749988079071 0.5162749886512756
O672 O 0.7914999723434448 0.668749988079071 0.7662749886512756
O673 O 0.2915000021457672 0.33125001192092896 0.01627499982714653
O674 O 0.2915000021457672 0.33125001192092896 0.26627498865127563
O675 O 0.2915000021457672 0.33125001192092896 0.5162749886512756
O676 O 0.2915000021457672 0.33125001192092896 0.7662749886512756
O677 O 0.2915000021457672 0.831250011920929 0.01627499982714653
O678 O 0.2915000021457672 0.831250011920929 0.26627498865127563
O679 O 0.2915000021457672 0.831250011920929 0.5162749886512756
O680 O 0.2915000021457672 0.831250011920929 0.7662749886512756
O681 O 0.7914999723434448 0.33125001192092896 0.01627499982714653
O682 O 0.7914999723434448 0.33125001192092896 0.26627498865127563
O683 O 0.7914999723434448 0.33125001192092896 0.5162749886512756
O684 O 0.7914999723434448 0.33125001192092896 0.7662749886512756
O685 O 0.7914999723434448 0.831250011920929 0.01627499982714653
O686 O 0.7914999723434448 0.831250011920929 0.26627498865127563
O687 O 0.7914999723434448 0.831250011920929 0.5162749886512756
O688 O 0.7914999723434448 0.831250011920929 0.7662749886512756
O689 O 0.31060001254081726 0.13484999537467957 0.13802500069141388
O690 O 0.31060001254081726 0.13484999537467957 0.3880249857902527
O691 O 0.31060001254081726 0.13484999537467957 0.6380249857902527
O692 O 0.31060001254081726 0.13484999537467957 0.8880249857902527
O693 O 0.31060001254081726 0.634850025177002 0.13802500069141388
O694 O 0.31060001254081726 0.634850025177002 0.3880249857902527
O695 O 0.31060001254081726 0.634850025177002 0.6380249857902527
O696 O 0.31060001254081726 0.634850025177002 0.8880249857902527
O697 O 0.8105999827384949 0.13484999537467957 0.13802500069141388
O698 O 0.8105999827384949 0.13484999537467957 0.3880249857902527
O699 O 0.8105999827384949 0.13484999537467957 0.6380249857902527
O700 O 0.8105999827384949 0.13484999537467957 0.8880249857902527
O701 O 0.8105999827384949 0.634850025177002 0.13802500069141388
O702 O 0.8105999827384949 0.634850025177002 0.3880249857902527
O703 O 0.8105999827384949 0.634850025177002 0.6380249857902527
O704 O 0.8105999827384949 0.634850025177002 0.8880249857902527
O705 O 0.31060001254081726 0.36515000462532043 0.13802500069141388
O706 O 0.31060001254081726 0.36515000462532043 0.3880249857902527
O707 O 0.31060001254081726 0.36515000462532043 0.6380249857902527
O708 O 0.31060001254081726 0.36515000462532043 0.8880249857902527
O709 O 0.31060001254081726 0.865149974822998 0.13802500069141388
O710 O 0.31060001254081726 0.865149974822998 0.3880249857902527
O711 O 0.31060001254081726 0.865149974822998 0.6380249857902527
O712 O 0.31060001254081726 0.865149974822998 0.8880249857902527
O713 O 0.8105999827384949 0.36515000462532043 0.13802500069141388
O714 O 0.8105999827384949 0.36515000462532043 0.3880249857902527
O715 O 0.8105999827384949 0.36515000462532043 0.6380249857902527
O716 O 0.8105999827384949 0.36515000462532043 0.8880249857902527
O717 O 0.8105999827384949 0.865149974822998 0.13802500069141388
O718 O 0.8105999827384949 0.865149974822998 0.3880249857902527
O719 O 0.8105999827384949 0.865149974822998 0.6380249857902527
O720 O 0.8105999827384949 0.865149974822998 0.8880249857902527
O721 O 0.3122499883174896 0.06674999743700027 0.10282500088214874
O722 O 0.3122499883174896 0.06674999743700027 0.35282498598098755
O723 O 0.3122499883174896 0.06674999743700027 0.6028249859809875
O724 O 0.3122499883174896 0.06674999743700027 0.8528249859809875
O725 O 0.3122499883174896 0.5667499899864197 0.10282500088214874
O726 O 0.3122499883174896 0.5667499899864197 0.35282498598098755
O727 O 0.3122499883174896 0.5667499899864197 0.6028249859809875
O728 O 0.3122499883174896 0.5667499899864197 0.8528249859809875
O729 O 0.812250018119812 0.06674999743700027 0.10282500088214874
O730 O 0.812250018119812 0.06674999743700027 0.35282498598098755
O731 O 0.812250018119812 0.06674999743700027 0.6028249859809875
O732 O 0.812250018119812 0.06674999743700027 0.8528249859809875
O733 O 0.812250018119812 0.5667499899864197 0.10282500088214874
O734 O 0.812250018119812 0.5667499899864197 0.35282498598098755
O735 O 0.812250018119812 0.5667499899864197 0.6028249859809875
O736 O 0.812250018119812 0.5667499899864197 0.8528249859809875
O737 O 0.3122499883174896 0.4332500100135803 0.10282500088214874
O738 O 0.3122499883174896 0.4332500100135803 0.35282498598098755
O739 O 0.3122499883174896 0.4332500100135803 0.6028249859809875
O740 O 0.3122499883174896 0.4332500100135803 0.8528249859809875
O741 O 0.3122499883174896 0.9332500100135803 0.10282500088214874
O742 O 0.3122499883174896 0.9332500100135803 0.35282498598098755
O743 O 0.3122499883174896 0.9332500100135803 0.6028249859809875
O744 O 0.3122499883174896 0.9332500100135803 0.8528249859809875
O745 O 0.812250018119812 0.4332500100135803 0.10282500088214874
O746 O 0.812250018119812 0.4332500100135803 0.35282498598098755
O747 O 0.812250018119812 0.4332500100135803 0.6028249859809875
O748 O 0.812250018119812 0.4332500100135803 0.8528249859809875
O749 O 0.812250018119812 0.9332500100135803 0.10282500088214874
O750 O 0.812250018119812 0.9332500100135803 0.35282498598098755
O751 O 0.812250018119812 0.9332500100135803 0.6028249859809875
O752 O 0.812250018119812 0.9332500100135803 0.8528249859809875
O753 O 0.34375 0.17139999568462372 0.22419999539852142
O754 O 0.34375 0.17139999568462372 0.4742000102996826
O755 O 0.34375 0.17139999568462372 0.7242000102996826
O756 O 0.34375 0.17139999568462372 0.9742000102996826
O757 O 0.34375 0.6714000105857849 0.22419999539852142
O758 O 0.34375 0.6714000105857849 0.4742000102996826
O759 O 0.34375 0.6714000105857849 0.7242000102996826
O760 O 0.34375 0.6714000105857849 0.9742000102996826
O761 O 0.84375 0.17139999568462372 0.22419999539852142
O762 O 0.84375 0.17139999568462372 0.4742000102996826
O763 O 0.84375 0.17139999568462372 0.7242000102996826
O764 O 0.84375 0.17139999568462372 0.9742000102996826
O765 O 0.84375 0.6714000105857849 0.22419999539852142
O766 O 0.84375 0.6714000105857849 0.4742000102996826
O767 O 0.84375 0.6714000105857849 0.7242000102996826
O768 O 0.84375 0.6714000105857849 0.9742000102996826
O769 O 0.34375 0.3285999894142151 0.22419999539852142
O770 O 0.34375 0.3285999894142151 0.4742000102996826
O771 O 0.34375 0.3285999894142151 0.7242000102996826
O772 O 0.34375 0.3285999894142151 0.9742000102996826
O773 O 0.34375 0.8285999894142151 0.22419999539852142
O774 O 0.34375 0.8285999894142151 0.4742000102996826
O775 O 0.34375 0.8285999894142151 0.7242000102996826
O776 O 0.34375 0.8285999894142151 0.9742000102996826
O777 O 0.84375 0.3285999894142151 0.22419999539852142
O778 O 0.84375 0.3285999894142151 0.4742000102996826
O779 O 0.84375 0.3285999894142151 0.7242000102996826
O780 O 0.84375 0.3285999894142151 0.9742000102996826
O781 O 0.84375 0.8285999894142151 0.22419999539852142
O782 O 0.84375 0.8285999894142151 0.4742000102996826
O783 O 0.84375 0.8285999894142151 0.7242000102996826
O784 O 0.84375 0.8285999894142151 0.9742000102996826
O785 O 0.3484500050544739 0.0 0.11400000005960464
O786 O 0.3484500050544739 0.0 0.36399999260902405
O787 O 0.3484500050544739 0.0 0.6140000224113464
O788 O 0.3484500050544739 0.0 0.8640000224113464
O789 O 0.3484500050544739 0.5 0.11400000005960464
O790 O 0.3484500050544739 0.5 0.36399999260902405
O791 O 0.3484500050544739 0.5 0.6140000224113464
O792 O 0.3484500050544739 0.5 0.8640000224113464
O793 O 0.8484500050544739 0.0 0.11400000005960464
O794 O 0.8484500050544739 0.0 0.36399999260902405
O795 O 0.8484500050544739 0.0 0.6140000224113464
O796 O 0.8484500050544739 0.0 0.8640000224113464
O797 O 0.8484500050544739 0.5 0.11400000005960464
O798 O 0.8484500050544739 0.5 0.36399999260902405
O799 O 0.8484500050544739 0.5 0.6140000224113464
O800 O 0.8484500050544739 0.5 0.8640000224113464
O801 O 0.3484500050544739 0.5 0.11400000005960464
O802 O 0.3484500050544739 0.5 0.36399999260902405
O803 O 0.3484500050544739 0.5 0.6140000224113464
O804 O 0.3484500050544739 0.5 0.8640000224113464
O805 O 0.3484500050544739 1.0 0.11400000005960464
O806 O 0.3484500050544739 1.0 0.36399999260902405
O807 O 0.3484500050544739 1.0 0.6140000224113464
O808 O 0.3484500050544739 1.0 0.8640000224113464
O809 O 0.8484500050544739 0.5 0.11400000005960464
O810 O 0.8484500050544739 0.5 0.36399999260902405
O811 O 0.8484500050544739 0.5 0.6140000224113464
O812 O 0.8484500050544739 0.5 0.8640000224113464
O813 O 0.8484500050544739 1.0 0.11400000005960464
O814 O 0.8484500050544739 1.0 0.36399999260902405
O815 O 0.8484500050544739 1.0 0.6140000224113464
O816 O 0.8484500050544739 1.0 0.8640000224113464
O817 O 0.3587999939918518 0.1246500015258789 0.04935000091791153
O818 O 0.3587999939918518 0.1246500015258789 0.29934999346733093
O819 O 0.3587999939918518 0.1246500015258789 0.5493500232696533
O820 O 0.3587999939918518 0.1246500015258789 0.7993500232696533
O821 O 0.3587999939918518 0.6246500015258789 0.04935000091791153
O822 O 0.3587999939918518 0.6246500015258789 0.29934999346733093
O823 O 0.3587999939918518 0.6246500015258789 0.5493500232696533
O824 O 0.3587999939918518 0.6246500015258789 0.7993500232696533
O825 O 0.8587999939918518 0.1246500015258789 0.04935000091791153
O826 O 0.8587999939918518 0.1246500015258789 0.29934999346733093
O827 O 0.8587999939918518 0.1246500015258789 0.5493500232696533
O828 O 0.8587999939918518 0.1246500015258789 0.7993500232696533
O829 O 0.8587999939918518 0.6246500015258789 0.04935000091791153
O830 O 0.8587999939918518 0.6246500015258789 0.29934999346733093
O831 O 0.8587999939918518 0.6246500015258789 0.5493500232696533
O832 O 0.8587999939918518 0.6246500015258789 0.7993500232696533
O833 O 0.3587999939918518 0.3753499984741211 0.04935000091791153
O834 O 0.3587999939918518 0.3753499984741211 0.29934999346733093
O835 O 0.3587999939918518 0.3753499984741211 0.5493500232696533
O836 O 0.3587999939918518 0.3753499984741211 0.7993500232696533
O837 O 0.3587999939918518 0.8753499984741211 0.04935000091791153
O838 O 0.3587999939918518 0.8753499984741211 0.29934999346733093
O839 O 0.3587999939918518 0.8753499984741211 0.5493500232696533
O840 O 0.3587999939918518 0.8753499984741211 0.7993500232696533
O841 O 0.8587999939918518 0.3753499984741211 0.04935000091791153
O842 O 0.8587999939918518 0.3753499984741211 0.29934999346733093
O843 O 0.8587999939918518 0.3753499984741211 0.5493500232696533
O844 O 0.8587999939918518 0.3753499984741211 0.7993500232696533
O845 O 0.8587999939918518 0.8753499984741211 0.04935000091791153
O846 O 0.8587999939918518 0.8753499984741211 0.29934999346733093
O847 O 0.8587999939918518 0.8753499984741211 0.5493500232696533
O848 O 0.8587999939918518 0.8753499984741211 0.7993500232696533
O849 O 0.36515000462532043 0.18995000422000885 0.15254999697208405
O850 O 0.36515000462532043 0.18995000422000885 0.40255001187324524
O851 O 0.36515000462532043 0.18995000422000885 0.6525499820709229
O852 O 0.36515000462532043 0.18995000422000885 0.9025499820709229
O853 O 0.36515000462532043 0.6899499893188477 0.15254999697208405
O854 O 0.36515000462532043 0.6899499893188477 0.40255001187324524
O855 O 0.36515000462532043 0.6899499893188477 0.6525499820709229
O856 O 0.36515000462532043 0.6899499893188477 0.9025499820709229
O857 O 0.865149974822998 0.18995000422000885 0.15254999697208405
O858 O 0.865149974822998 0.18995000422000885 0.40255001187324524
O859 O 0.865149974822998 0.18995000422000885 0.6525499820709229
O860 O 0.865149974822998 0.18995000422000885 0.9025499820709229
O861 O 0.865149974822998 0.6899499893188477 0.15254999697208405
O862 O 0.865149974822998 0.6899499893188477 0.40255001187324524
O863 O 0.865149974822998 0.6899499893188477 0.6525499820709229
O864 O 0.865149974822998 0.6899499893188477 0.9025499820709229
O865 O 0.36515000462532043 0.31005001068115234 0.15254999697208405
O866 O 0.36515000462532043 0.31005001068115234 0.40255001187324524
O867 O 0.36515000462532043 0.31005001068115234 0.6525499820709229
O868 O 0.36515000462532043 0.31005001068115234 0.9025499820709229
O869 O 0.36515000462532043 0.8100500106811523 0.15254999697208405
O870 O 0.36515000462532043 0.8100500106811523 0.40255001187324524
O871 O 0.36515000462532043 0.8100500106811523 0.6525499820709229
O872 O 0.36515000462532043 0.8100500106811523 0.9025499820709229
O873 O 0.865149974822998 0.31005001068115234 0.15254999697208405
O874 O 0.865149974822998 0.31005001068115234 0.40255001187324524
O875 O 0.865149974822998 0.31005001068115234 0.6525499820709229
O876 O 0.865149974822998 0.31005001068115234 0.9025499820709229
O877 O 0.865149974822998 0.8100500106811523 0.15254999697208405
O878 O 0.865149974822998 0.8100500106811523 0.40255001187324524
O879 O 0.865149974822998 0.8100500106811523 0.6525499820709229
O880 O 0.865149974822998 0.8100500106811523 0.9025499820709229
O881 O 0.3677000105381012 0.19805000722408295 0.06565000116825104
O882 O 0.3677000105381012 0.19805000722408295 0.31564998626708984
O883 O 0.3677000105381012 0.19805000722408295 0.5656499862670898
O884 O 0.3677000105381012 0.19805000722408295 0.8156499862670898
O885 O 0.3677000105381012 0.6980500221252441 0.06565000116825104
O886 O 0.3677000105381012 0.6980500221252441 0.31564998626708984
O887 O 0.3677000105381012 0.6980500221252441 0.5656499862670898
O888 O 0.3677000105381012 0.6980500221252441 0.8156499862670898
O889 O 0.8676999807357788 0.19805000722408295 0.06565000116825104
O890 O 0.8676999807357788 0.19805000722408295 0.31564998626708984
O891 O 0.8676999807357788 0.19805000722408295 0.5656499862670898
O892 O 0.8676999807357788 0.19805000722408295 0.8156499862670898
O893 O 0.8676999807357788 0.6980500221252441 0.06565000116825104
O894 O 0.8676999807357788 0.6980500221252441 0.31564998626708984
O895 O 0.8676999807357788 0.6980500221252441 0.5656499862670898
O896 O 0.8676999807357788 0.6980500221252441 0.8156499862670898
O897 O 0.3677000105381012 0.30195000767707825 0.06565000116825104
O898 O 0.3677000105381012 0.30195000767707825 0.31564998626708984
O899 O 0.3677000105381012 0.30195000767707825 0.5656499862670898
O900 O 0.3677000105381012 0.30195000767707825 0.8156499862670898
O901 O 0.3677000105381012 0.8019499778747559 0.06565000116825104
O902 O 0.3677000105381012 0.8019499778747559 0.31564998626708984
O903 O 0.3677000105381012 0.8019499778747559 0.5656499862670898
O904 O 0.3677000105381012 0.8019499778747559 0.8156499862670898
O905 O 0.8676999807357788 0.30195000767707825 0.06565000116825104
O906 O 0.8676999807357788 0.30195000767707825 0.31564998626708984
O907 O 0.8676999807357788 0.30195000767707825 0.5656499862670898
O908 O 0.8676999807357788 0.30195000767707825 0.8156499862670898
O909 O 0.8676999807357788 0.8019499778747559 0.06565000116825104
O910 O 0.8676999807357788 0.8019499778747559 0.31564998626708984
O911 O 0.8676999807357788 0.8019499778747559 0.5656499862670898
O912 O 0.8676999807357788 0.8019499778747559 0.8156499862670898
O913 O 0.3822999894618988 0.05195000022649765 0.18434999883174896
O914 O 0.3822999894618988 0.05195000022649765 0.43435001373291016
O915 O 0.3822999894618988 0.05195000022649765 0.6843500137329102
O916 O 0.3822999894618988 0.05195000022649765 0.9343500137329102
O917 O 0.3822999894618988 0.5519499778747559 0.18434999883174896
O918 O 0.3822999894618988 0.5519499778747559 0.43435001373291016
O919 O 0.3822999894618988 0.5519499778747559 0.6843500137329102
O920 O 0.3822999894618988 0.5519499778747559 0.9343500137329102
O921 O 0.8823000192642212 0.05195000022649765 0.18434999883174896
O922 O 0.8823000192642212 0.05195000022649765 0.43435001373291016
O923 O 0.8823000192642212 0.05195000022649765 0.6843500137329102
O924 O 0.8823000192642212 0.05195000022649765 0.9343500137329102
O925 O 0.8823000192642212 0.5519499778747559 0.18434999883174896
O926 O 0.8823000192642212 0.5519499778747559 0.43435001373291016
O927 O 0.8823000192642212 0.5519499778747559 0.6843500137329102
O928 O 0.8823000192642212 0.5519499778747559 0.9343500137329102
O929 O 0.3822999894618988 0.44804999232292175 0.18434999883174896
O930 O 0.3822999894618988 0.44804999232292175 0.43435001373291016
O931 O 0.3822999894618988 0.44804999232292175 0.6843500137329102
O932 O 0.3822999894618988 0.44804999232292175 0.9343500137329102
O933 O 0.3822999894618988 0.9480500221252441 0.18434999883174896
O934 O 0.3822999894618988 0.9480500221252441 0.43435001373291016
O935 O 0.3822999894618988 0.9480500221252441 0.6843500137329102
O936 O 0.3822999894618988 0.9480500221252441 0.9343500137329102
O937 O 0.8823000192642212 0.44804999232292175 0.18434999883174896
O938 O 0.8823000192642212 0.44804999232292175 0.43435001373291016
O939 O 0.8823000192642212 0.44804999232292175 0.6843500137329102
O940 O 0.8823000192642212 0.44804999232292175 0.9343500137329102
O941 O 0.8823000192642212 0.9480500221252441 0.18434999883174896
O942 O 0.8823000192642212 0.9480500221252441 0.43435001373291016
O943 O 0.8823000192642212 0.9480500221252441 0.6843500137329102
O944 O 0.8823000192642212 0.9480500221252441 0.9343500137329102
O945 O 0.38484999537467957 0.06004999950528145 0.09745000302791595
O946 O 0.38484999537467957 0.06004999950528145 0.34744998812675476
O947 O 0.38484999537467957 0.06004999950528145 0.5974500179290771
O948 O 0.38484999537467957 0.06004999950528145 0.8474500179290771
O949 O 0.38484999537467957 0.5600500106811523 0.09745000302791595
O950 O 0.38484999537467957 0.5600500106811523 0.34744998812675476
O951 O 0.38484999537467957 0.5600500106811523 0.5974500179290771
O952 O 0.38484999537467957 0.5600500106811523 0.8474500179290771
O953 O 0.884850025177002 0.06004999950528145 0.09745000302791595
O954 O 0.884850025177002 0.06004999950528145 0.34744998812675476
O955 O 0.884850025177002 0.06004999950528145 0.5974500179290771
O956 O 0.884850025177002 0.06004999950528145 0.8474500179290771
O957 O 0.884850025177002 0.5600500106811523 0.09745000302791595
O958 O 0.884850025177002 0.5600500106811523 0.34744998812675476
O959 O 0.884850025177002 0.5600500106811523 0.5974500179290771
O960 O 0.884850025177002 0.5600500106811523 0.8474500179290771
O961 O 0.38484999537467957 0.43994998931884766 0.09745000302791595
O962 O 0.38484999537467957 0.43994998931884766 0.34744998812675476
O963 O 0.38484999537467957 0.43994998931884766 0.5974500179290771
O964 O 0.38484999537467957 0.43994998931884766 0.8474500179290771
O965 O 0.38484999537467957 0.9399499893188477 0.09745000302791595
O966 O 0.38484999537467957 0.9399499893188477 0.34744998812675476
O967 O 0.38484999537467957 0.9399499893188477 0.5974500179290771
O968 O 0.38484999537467957 0.9399499893188477 0.8474500179290771
O969 O 0.884850025177002 0.43994998931884766 0.09745000302791595
O970 O 0.884850025177002 0.43994998931884766 0.34744998812675476
O971 O 0.884850025177002 0.43994998931884766 0.5974500179290771
O972 O 0.884850025177002 0.43994998931884766 0.8474500179290771
O973 O 0.884850025177002 0.9399499893188477 0.09745000302791595
O974 O 0.884850025177002 0.9399499893188477 0.34744998812675476
O975 O 0.884850025177002 0.9399499893188477 0.5974500179290771
O976 O 0.884850025177002 0.9399499893188477 0.8474500179290771
O977 O 0.3912000060081482 0.1253499984741211 0.20065000653266907
O978 O 0.3912000060081482 0.1253499984741211 0.45065000653266907
O979 O 0.3912000060081482 0.1253499984741211 0.7006499767303467
O980 O 0.3912000060081482 0.1253499984741211 0.9506499767303467
O981 O 0.3912000060081482 0.6253499984741211 0.20065000653266907
O982 O 0.3912000060081482 0.6253499984741211 0.45065000653266907
O983 O 0.3912000060081482 0.6253499984741211 0.7006499767303467
O984 O 0.3912000060081482 0.6253499984741211 0.9506499767303467
O985 O 0.8912000060081482 0.1253499984741211 0.20065000653266907
O986 O 0.8912000060081482 0.1253499984741211 0.45065000653266907
O987 O 0.8912000060081482 0.1253499984741211 0.7006499767303467
O988 O 0.8912000060081482 0.1253499984741211 0.9506499767303467
O989 O 0.8912000060081482 0.6253499984741211 0.20065000653266907
O990 O 0.8912000060081482 0.6253499984741211 0.45065000653266907
O991 O 0.8912000060081482 0.6253499984741211 0.7006499767303467
O992 O 0.8912000060081482 0.6253499984741211 0.9506499767303467
O993 O 0.3912000060081482 0.3746500015258789 0.20065000653266907
O994 O 0.3912000060081482 0.3746500015258789 0.45065000653266907
O995 O 0.3912000060081482 0.3746500015258789 0.7006499767303467
O996 O 0.3912000060081482 0.3746500015258789 0.9506499767303467
O997 O 0.3912000060081482 0.8746500015258789 0.20065000653266907
O998 O 0.3912000060081482 0.8746500015258789 0.45065000653266907
O999 O 0.3912000060081482 0.8746500015258789 0.7006499767303467
O1000 O 0.3912000060081482 0.8746500015258789 0.9506499767303467
O1001 O 0.8912000060081482 0.3746500015258789 0.20065000653266907
O1002 O 0.8912000060081482 0.3746500015258789 0.45065000653266907
O1003 O 0.8912000060081482 0.3746500015258789 0.7006499767303467
O1004 O 0.8912000060081482 0.3746500015258789 0.9506499767303467
O1005 O 0.8912000060081482 0.8746500015258789 0.20065000653266907
O1006 O 0.8912000060081482 0.8746500015258789 0.45065000653266907
O1007 O 0.8912000060081482 0.8746500015258789 0.7006499767303467
O1008 O 0.8912000060081482 0.8746500015258789 0.9506499767303467
O1009 O 0.4015499949455261 0.25 0.13600000739097595
O1010 O 0.4015499949455261 0.25 0.38600000739097595
O1011 O 0.4015499949455261 0.25 0.6359999775886536
O1012 O 0.4015499949455261 0.25 0.8859999775886536
O1013 O 0.4015499949455261 0.75 0.13600000739097595
O1014 O 0.4015499949455261 0.75 0.38600000739097595
O1015 O 0.4015499949455261 0.75 0.6359999775886536
O1016 O 0.4015499949455261 0.75 0.8859999775886536
O1017 O 0.9015499949455261 0.25 0.13600000739097595
O1018 O 0.9015499949455261 0.25 0.38600000739097595
O1019 O 0.9015499949455261 0.25 0.6359999775886536
O1020 O 0.9015499949455261 0.25 0.8859999775886536
O1021 O 0.9015499949455261 0.75 0.13600000739097595
O1022 O 0.9015499949455261 0.75 0.38600000739097595
O1023 O 0.9015499949455261 0.75 0.6359999775886536
O1024 O 0.9015499949455261 0.75 0.8859999775886536
O1025 O 0.40625 0.07859999686479568 0.025800000876188278
O1026 O 0.40625 0.07859999686479568 0.2757999897003174
O1027 O 0.40625 0.07859999686479568 0.5257999897003174
O1028 O 0.40625 0.07859999686479568 0.7757999897003174
O1029 O 0.40625 0.5785999894142151 0.025800000876188278
O1030 O 0.40625 0.5785999894142151 0.2757999897003174
O1031 O 0.40625 0.5785999894142151 0.5257999897003174
O1032 O 0.40625 0.5785999894142151 0.7757999897003174
O1033 O 0.90625 0.07859999686479568 0.025800000876188278
O1034 O 0.90625 0.07859999686479568 0.2757999897003174
O1035 O 0.90625 0.07859999686479568 0.5257999897003174
O1036 O 0.90625 0.07859999686479568 0.7757999897003174
O1037 O 0.90625 0.5785999894142151 0.025800000876188278
O1038 O 0.90625 0.5785999894142151 0.2757999897003174
O1039 O 0.90625 0.5785999894142151 0.5257999897003174
O1040 O 0.90625 0.5785999894142151 0.7757999897003174
O1041 O 0.40625 0.4214000105857849 0.025800000876188278
O1042 O 0.40625 0.4214000105857849 0.2757999897003174
O1043 O 0.40625 0.4214000105857849 0.5257999897003174
O1044 O 0.40625 0.4214000105857849 0.7757999897003174
O1045 O 0.40625 0.9214000105857849 0.025800000876188278
O1046 O 0.40625 0.9214000105857849 0.2757999897003174
O1047 O 0.40625 0.9214000105857849 0.5257999897003174
O1048 O 0.40625 0.9214000105857849 0.7757999897003174
O1049 O 0.90625 0.4214000105857849 0.025800000876188278
O1050 O 0.90625 0.4214000105857849 0.2757999897003174
O1051 O 0.90625 0.4214000105857849 0.5257999897003174
O1052 O 0.90625 0.4214000105857849 0.7757999897003174
O1053 O 0.90625 0.9214000105857849 0.025800000876188278
O1054 O 0.90625 0.9214000105857849 0.2757999897003174
O1055 O 0.90625 0.9214000105857849 0.5257999897003174
O1056 O 0.90625 0.9214000105857849 0.7757999897003174
O1057 O 0.4377500116825104 0.18324999511241913 0.14717499911785126
O1058 O 0.4377500116825104 0.18324999511241913 0.39717501401901245
O1059 O 0.4377500116825104 0.18324999511241913 0.6471750140190125
O1060 O 0.4377500116825104 0.18324999511241913 0.8971750140190125
O1061 O 0.4377500116825104 0.6832500100135803 0.14717499911785126
O1062 O 0.4377500116825104 0.6832500100135803 0.39717501401901245
O1063 O 0.4377500116825104 0.6832500100135803 0.6471750140190125
O1064 O 0.4377500116825104 0.6832500100135803 0.8971750140190125
O1065 O 0.937749981880188 0.18324999511241913 0.14717499911785126
O1066 O 0.937749981880188 0.18324999511241913 0.39717501401901245
O1067 O 0.937749981880188 0.18324999511241913 0.6471750140190125
O1068 O 0.937749981880188 0.18324999511241913 0.8971750140190125
O1069 O 0.937749981880188 0.6832500100135803 0.14717499911785126
O1070 O 0.937749981880188 0.6832500100135803 0.39717501401901245
O1071 O 0.937749981880188 0.6832500100135803 0.6471750140190125
O1072 O 0.937749981880188 0.6832500100135803 0.8971750140190125
O1073 O 0.4377500116825104 0.3167499899864197 0.14717499911785126
O1074 O 0.4377500116825104 0.3167499899864197 0.39717501401901245
O1075 O 0.4377500116825104 0.3167499899864197 0.6471750140190125
O1076 O 0.4377500116825104 0.3167499899864197 0.8971750140190125
O1077 O 0.4377500116825104 0.8167499899864197 0.14717499911785126
O1078 O 0.4377500116825104 0.8167499899864197 0.39717501401901245
O1079 O 0.4377500116825104 0.8167499899864197 0.6471750140190125
O1080 O 0.4377500116825104 0.8167499899864197 0.8971750140190125
O1081 O 0.937749981880188 0.3167499899864197 0.14717499911785126
O1082 O 0.937749981880188 0.3167499899864197 0.39717501401901245
O1083 O 0.937749981880188 0.3167499899864197 0.6471750140190125
O1084 O 0.937749981880188 0.3167499899864197 0.8971750140190125
O1085 O 0.937749981880188 0.8167499899864197 0.14717499911785126
O1086 O 0.937749981880188 0.8167499899864197 0.39717501401901245
O1087 O 0.937749981880188 0.8167499899864197 0.6471750140190125
O1088 O 0.937749981880188 0.8167499899864197 0.8971750140190125
O1089 O 0.43939998745918274 0.11514999717473984 0.11197499930858612
O1090 O 0.43939998745918274 0.11514999717473984 0.3619750142097473
O1091 O 0.43939998745918274 0.11514999717473984 0.6119750142097473
O1092 O 0.43939998745918274 0.11514999717473984 0.8619750142097473
O1093 O 0.43939998745918274 0.615149974822998 0.11197499930858612
O1094 O 0.43939998745918274 0.615149974822998 0.3619750142097473
O1095 O 0.43939998745918274 0.615149974822998 0.6119750142097473
O1096 O 0.43939998745918274 0.615149974822998 0.8619750142097473
O1097 O 0.9394000172615051 0.11514999717473984 0.11197499930858612
O1098 O 0.9394000172615051 0.11514999717473984 0.3619750142097473
O1099 O 0.9394000172615051 0.11514999717473984 0.6119750142097473
O1100 O 0.9394000172615051 0.11514999717473984 0.8619750142097473
O1101 O 0.9394000172615051 0.615149974822998 0.11197499930858612
O1102 O 0.9394000172615051 0.615149974822998 0.3619750142097473
O1103 O 0.9394000172615051 0.615149974822998 0.6119750142097473
O1104 O 0.9394000172615051 0.615149974822998 0.8619750142097473
O1105 O 0.43939998745918274 0.38484999537467957 0.11197499930858612
O1106 O 0.43939998745918274 0.38484999537467957 0.3619750142097473
O1107 O 0.43939998745918274 0.38484999537467957 0.6119750142097473
O1108 O 0.43939998745918274 0.38484999537467957 0.8619750142097473
O1109 O 0.43939998745918274 0.884850025177002 0.11197499930858612
O1110 O 0.43939998745918274 0.884850025177002 0.3619750142097473
O1111 O 0.43939998745918274 0.884850025177002 0.6119750142097473
O1112 O 0.43939998745918274 0.884850025177002 0.8619750142097473
O1113 O 0.9394000172615051 0.38484999537467957 0.11197499930858612
O1114 O 0.9394000172615051 0.38484999537467957 0.3619750142097473
O1115 O 0.9394000172615051 0.38484999537467957 0.6119750142097473
O1116 O 0.9394000172615051 0.38484999537467957 0.8619750142097473
O1117 O 0.9394000172615051 0.884850025177002 0.11197499930858612
O1118 O 0.9394000172615051 0.884850025177002 0.3619750142097473
O1119 O 0.9394000172615051 0.884850025177002 0.6119750142097473
O1120 O 0.9394000172615051 0.884850025177002 0.8619750142097473
O1121 O 0.4584999978542328 0.08124999701976776 0.23372499644756317
O1122 O 0.4584999978542328 0.08124999701976776 0.48372501134872437
O1123 O 0.4584999978542328 0.08124999701976776 0.7337250113487244
O1124 O 0.4584999978542328 0.08124999701976776 0.9837250113487244
O1125 O 0.4584999978542328 0.581250011920929 0.23372499644756317
O1126 O 0.4584999978542328 0.581250011920929 0.48372501134872437
O1127 O 0.4584999978542328 0.581250011920929 0.7337250113487244
O1128 O 0.4584999978542328 0.581250011920929 0.9837250113487244
O1129 O 0.9585000276565552 0.08124999701976776 0.23372499644756317
O1130 O 0.9585000276565552 0.08124999701976776 0.48372501134872437
O1131 O 0.9585000276565552 0.08124999701976776 0.7337250113487244
O1132 O 0.9585000276565552 0.08124999701976776 0.9837250113487244
O1133 O 0.9585000276565552 0.581250011920929 0.23372499644756317
O1134 O 0.9585000276565552 0.581250011920929 0.48372501134872437
O1135 O 0.9585000276565552 0.581250011920929 0.7337250113487244
O1136 O 0.9585000276565552 0.581250011920929 0.9837250113487244
O1137 O 0.4584999978542328 0.41874998807907104 0.23372499644756317
O1138 O 0.4584999978542328 0.41874998807907104 0.48372501134872437
O1139 O 0.4584999978542328 0.41874998807907104 0.7337250113487244
O1140 O 0.4584999978542328 0.41874998807907104 0.9837250113487244
O1141 O 0.4584999978542328 0.918749988079071 0.23372499644756317
O1142 O 0.4584999978542328 0.918749988079071 0.48372501134872437
O1143 O 0.4584999978542328 0.918749988079071 0.7337250113487244
O1144 O 0.4584999978542328 0.918749988079071 0.9837250113487244
O1145 O 0.9585000276565552 0.41874998807907104 0.23372499644756317
O1146 O 0.9585000276565552 0.41874998807907104 0.48372501134872437
O1147 O 0.9585000276565552 0.41874998807907104 0.7337250113487244
O1148 O 0.9585000276565552 0.41874998807907104 0.9837250113487244
O1149 O 0.9585000276565552 0.918749988079071 0.23372499644756317
O1150 O 0.9585000276565552 0.918749988079071 0.48372501134872437
O1151 O 0.9585000276565552 0.918749988079071 0.7337250113487244
O1152 O 0.9585000276565552 0.918749988079071 0.9837250113487244
O1153 O 0.49505001306533813 0.1339000016450882 0.2033499926328659
O1154 O 0.49505001306533813 0.1339000016450882 0.4533500075340271
O1155 O 0.49505001306533813 0.1339000016450882 0.7033500075340271
O1156 O 0.49505001306533813 0.1339000016450882 0.9533500075340271
O1157 O 0.49505001306533813 0.633899986743927 0.2033499926328659
O1158 O 0.49505001306533813 0.633899986743927 0.4533500075340271
O1159 O 0.49505001306533813 0.633899986743927 0.7033500075340271
O1160 O 0.49505001306533813 0.633899986743927 0.9533500075340271
O1161 O 0.9950500130653381 0.1339000016450882 0.2033499926328659
O1162 O 0.9950500130653381 0.1339000016450882 0.4533500075340271
O1163 O 0.9950500130653381 0.1339000016450882 0.7033500075340271
O1164 O 0.9950500130653381 0.1339000016450882 0.9533500075340271
O1165 O 0.9950500130653381 0.633899986743927 0.2033499926328659
O1166 O 0.9950500130653381 0.633899986743927 0.4533500075340271
O1167 O 0.9950500130653381 0.633899986743927 0.7033500075340271
O1168 O 0.9950500130653381 0.633899986743927 0.9533500075340271
O1169 O 0.49505001306533813 0.366100013256073 0.2033499926328659
O1170 O 0.49505001306533813 0.366100013256073 0.4533500075340271
O1171 O 0.49505001306533813 0.366100013256073 0.7033500075340271
O1172 O 0.49505001306533813 0.366100013256073 0.9533500075340271
O1173 O 0.49505001306533813 0.866100013256073 0.2033499926328659
O1174 O 0.49505001306533813 0.866100013256073 0.4533500075340271
O1175 O 0.49505001306533813 0.866100013256073 0.7033500075340271
O1176 O 0.49505001306533813 0.866100013256073 0.9533500075340271
O1177 O 0.9950500130653381 0.366100013256073 0.2033499926328659
O1178 O 0.9950500130653381 0.366100013256073 0.4533500075340271
O1179 O 0.9950500130653381 0.366100013256073 0.7033500075340271
O1180 O 0.9950500130653381 0.366100013256073 0.9533500075340271
O1181 O 0.9950500130653381 0.866100013256073 0.2033499926328659
O1182 O 0.9950500130653381 0.866100013256073 0.4533500075340271
O1183 O 0.9950500130653381 0.866100013256073 0.7033500075340271
O1184 O 0.9950500130653381 0.866100013256073 0.9533500075340271
Si1185 Si 0.0 0.1075500026345253 0.0
Si1186 Si 0.0 0.1075500026345253 0.25
Si1187 Si 0.0 0.1075500026345253 0.5
Si1188 Si 0.0 0.1075500026345253 0.75
Si1189 Si 0.0 0.6075500249862671 0.0
Si1190 Si 0.0 0.6075500249862671 0.25
Si1191 Si 0.0 0.6075500249862671 0.5
Si1192 Si 0.0 0.6075500249862671 0.75
Si1193 Si 0.5 0.1075500026345253 0.0
Si1194 Si 0.5 0.1075500026345253 0.25
Si1195 Si 0.5 0.1075500026345253 0.5
Si1196 Si 0.5 0.1075500026345253 0.75
Si1197 Si 0.5 0.6075500249862671 0.0
Si1198 Si 0.5 0.6075500249862671 0.25
Si1199 Si 0.5 0.6075500249862671 0.5
Si1200 Si 0.5 0.6075500249862671 0.75
Si1201 Si 0.0 0.3924500048160553 0.0
Si1202 Si 0.0 0.3924500048160553 0.25
Si1203 Si 0.0 0.3924500048160553 0.5
Si1204 Si 0.0 0.3924500048160553 0.75
Si1205 Si 0.0 0.8924499750137329 0.0
Si1206 Si 0.0 0.8924499750137329 0.25
Si1207 Si 0.0 0.8924499750137329 0.5
Si1208 Si 0.0 0.8924499750137329 0.75
Si1209 Si 0.5 0.3924500048160553 0.0
Si1210 Si 0.5 0.3924500048160553 0.25
Si1211 Si 0.5 0.3924500048160553 0.5
Si1212 Si 0.5 0.3924500048160553 0.75
Si1213 Si 0.5 0.8924499750137329 0.0
Si1214 Si 0.5 0.8924499750137329 0.25
Si1215 Si 0.5 0.8924499750137329 0.5
Si1216 Si 0.5 0.8924499750137329 0.75
Si1217 Si 0.0320499986410141 0.14904999732971191 0.10320000350475311
Si1218 Si 0.0320499986410141 0.14904999732971191 0.3531999886035919
Si1219 Si 0.0320499986410141 0.14904999732971191 0.6032000184059143
Si1220 Si 0.0320499986410141 0.14904999732971191 0.8532000184059143
Si1221 Si 0.0320499986410141 0.6490499973297119 0.10320000350475311
Si1222 Si 0.0320499986410141 0.6490499973297119 0.3531999886035919
Si1223 Si 0.0320499986410141 0.6490499973297119 0.6032000184059143
Si1224 Si 0.0320499986410141 0.6490499973297119 0.8532000184059143
Si1225 Si 0.5320500135421753 0.14904999732971191 0.10320000350475311
Si1226 Si 0.5320500135421753 0.14904999732971191 0.3531999886035919
Si1227 Si 0.5320500135421753 0.14904999732971191 0.6032000184059143
Si1228 Si 0.5320500135421753 0.14904999732971191 0.8532000184059143
Si1229 Si 0.5320500135421753 0.6490499973297119 0.10320000350475311
Si1230 Si 0.5320500135421753 0.6490499973297119 0.3531999886035919
Si1231 Si 0.5320500135421753 0.6490499973297119 0.6032000184059143
Si1232 Si 0.5320500135421753 0.6490499973297119 0.8532000184059143
Si1233 Si 0.0320499986410141 0.3509500026702881 0.10320000350475311
Si1234 Si 0.0320499986410141 0.3509500026702881 0.3531999886035919
Si1235 Si 0.0320499986410141 0.3509500026702881 0.6032000184059143
Si1236 Si 0.0320499986410141 0.3509500026702881 0.8532000184059143
Si1237 Si 0.0320499986410141 0.8509500026702881 0.10320000350475311
Si1238 Si 0.0320499986410141 0.8509500026702881 0.3531999886035919
Si1239 Si 0.0320499986410141 0.8509500026702881 0.6032000184059143
Si1240 Si 0.0320499986410141 0.8509500026702881 0.8532000184059143
Si1241 Si 0.5320500135421753 0.3509500026702881 0.10320000350475311
Si1242 Si 0.5320500135421753 0.3509500026702881 0.3531999886035919
Si1243 Si 0.5320500135421753 0.3509500026702881 0.6032000184059143
Si1244 Si 0.5320500135421753 0.3509500026702881 0.8532000184059143
Si1245 Si 0.5320500135421753 0.8509500026702881 0.10320000350475311
Si1246 Si 0.5320500135421753 0.8509500026702881 0.3531999886035919
Si1247 Si 0.5320500135421753 0.8509500026702881 0.6032000184059143
Si1248 Si 0.5320500135421753 0.8509500026702881 0.8532000184059143
Si1249 Si 0.0904499962925911 0.08429999649524689 0.026350000873208046
Si1250 Si 0.0904499962925911 0.08429999649524689 0.2763499915599823
Si1251 Si 0.0904499962925911 0.08429999649524689 0.5263500213623047
Si1252 Si 0.0904499962925911 0.08429999649524689 0.7763500213623047
Si1253 Si 0.0904499962925911 0.5842999815940857 0.026350000873208046
Si1254 Si 0.0904499962925911 0.5842999815940857 0.2763499915599823
Si1255 Si 0.0904499962925911 0.5842999815940857 0.5263500213623047
Si1256 Si 0.0904499962925911 0.5842999815940857 0.7763500213623047
Si1257 Si 0.5904499888420105 0.08429999649524689 0.026350000873208046
Si1258 Si 0.5904499888420105 0.08429999649524689 0.2763499915599823
Si1259 Si 0.5904499888420105 0.08429999649524689 0.5263500213623047
Si1260 Si 0.5904499888420105 0.08429999649524689 0.7763500213623047
Si1261 Si 0.5904499888420105 0.5842999815940857 0.026350000873208046
Si1262 Si 0.5904499888420105 0.5842999815940857 0.2763499915599823
Si1263 Si 0.5904499888420105 0.5842999815940857 0.5263500213623047
Si1264 Si 0.5904499888420105 0.5842999815940857 0.7763500213623047
Si1265 Si 0.0904499962925911 0.4156999886035919 0.026350000873208046
Si1266 Si 0.0904499962925911 0.4156999886035919 0.2763499915599823
Si1267 Si 0.0904499962925911 0.4156999886035919 0.5263500213623047
Si1268 Si 0.0904499962925911 0.4156999886035919 0.7763500213623047
Si1269 Si 0.0904499962925911 0.9157000184059143 0.026350000873208046
Si1270 Si 0.0904499962925911 0.9157000184059143 0.2763499915599823
Si1271 Si 0.0904499962925911 0.9157000184059143 0.5263500213623047
Si1272 Si 0.0904499962925911 0.9157000184059143 0.7763500213623047
Si1273 Si 0.5904499888420105 0.4156999886035919 0.026350000873208046
Si1274 Si 0.5904499888420105 0.4156999886035919 0.2763499915599823
Si1275 Si 0.5904499888420105 0.4156999886035919 0.5263500213623047
Si1276 Si 0.5904499888420105 0.4156999886035919 0.7763500213623047
Si1277 Si 0.5904499888420105 0.9157000184059143 0.026350000873208046
Si1278 Si 0.5904499888420105 0.9157000184059143 0.2763499915599823
Si1279 Si 0.5904499888420105 0.9157000184059143 0.5263500213623047
Si1280 Si 0.5904499888420105 0.9157000184059143 0.7763500213623047
Si1281 Si 0.1026500016450882 0.09465000033378601 0.17887499928474426
Si1282 Si 0.1026500016450882 0.09465000033378601 0.42887499928474426
Si1283 Si 0.1026500016450882 0.09465000033378601 0.6788750290870667
Si1284 Si 0.1026500016450882 0.09465000033378601 0.9288750290870667
Si1285 Si 0.1026500016450882 0.5946499705314636 0.17887499928474426
Si1286 Si 0.1026500016450882 0.5946499705314636 0.42887499928474426
Si1287 Si 0.1026500016450882 0.5946499705314636 0.6788750290870667
Si1288 Si 0.1026500016450882 0.5946499705314636 0.9288750290870667
Si1289 Si 0.602649986743927 0.09465000033378601 0.17887499928474426
Si1290 Si 0.602649986743927 0.09465000033378601 0.42887499928474426
Si1291 Si 0.602649986743927 0.09465000033378601 0.6788750290870667
Si1292 Si 0.602649986743927 0.09465000033378601 0.9288750290870667
Si1293 Si 0.602649986743927 0.5946499705314636 0.17887499928474426
Si1294 Si 0.602649986743927 0.5946499705314636 0.42887499928474426
Si1295 Si 0.602649986743927 0.5946499705314636 0.6788750290870667
Si1296 Si 0.602649986743927 0.5946499705314636 0.9288750290870667
Si1297 Si 0.1026500016450882 0.405349999666214 0.17887499928474426
Si1298 Si 0.1026500016450882 0.405349999666214 0.42887499928474426
Si1299 Si 0.1026500016450882 0.405349999666214 0.6788750290870667
Si1300 Si 0.1026500016450882 0.405349999666214 0.9288750290870667
Si1301 Si 0.1026500016450882 0.9053500294685364 0.17887499928474426
Si1302 Si 0.1026500016450882 0.9053500294685364 0.42887499928474426
Si1303 Si 0.1026500016450882 0.9053500294685364 0.6788750290870667
Si1304 Si 0.1026500016450882 0.9053500294685364 0.9288750290870667
Si1305 Si 0.602649986743927 0.405349999666214 0.17887499928474426
Si1306 Si 0.602649986743927 0.405349999666214 0.42887499928474426
Si1307 Si 0.602649986743927 0.405349999666214 0.6788750290870667
Si1308 Si 0.602649986743927 0.405349999666214 0.9288750290870667
Si1309 Si 0.602649986743927 0.9053500294685364 0.17887499928474426
Si1310 Si 0.602649986743927 0.9053500294685364 0.42887499928474426
Si1311 Si 0.602649986743927 0.9053500294685364 0.6788750290870667
Si1312 Si 0.602649986743927 0.9053500294685364 0.9288750290870667
Si1313 Si 0.10700000077486038 0.20534999668598175 0.12470000237226486
Si1314 Si 0.10700000077486038 0.20534999668598175 0.37470000982284546
Si1315 Si 0.10700000077486038 0.20534999668598175 0.6247000098228455
Si1316 Si 0.10700000077486038 0.20534999668598175 0.8747000098228455
Si1317 Si 0.10700000077486038 0.7053499817848206 0.12470000237226486
Si1318 Si 0.10700000077486038 0.7053499817848206 0.37470000982284546
Si1319 Si 0.10700000077486038 0.7053499817848206 0.6247000098228455
Si1320 Si 0.10700000077486038 0.7053499817848206 0.8747000098228455
Si1321 Si 0.6069999933242798 0.20534999668598175 0.12470000237226486
Si1322 Si 0.6069999933242798 0.20534999668598175 0.37470000982284546
Si1323 Si 0.6069999933242798 0.20534999668598175 0.6247000098228455
Si1324 Si 0.6069999933242798 0.20534999668598175 0.8747000098228455
Si1325 Si 0.6069999933242798 0.7053499817848206 0.12470000237226486
Si1326 Si 0.6069999933242798 0.7053499817848206 0.37470000982284546
Si1327 Si 0.6069999933242798 0.7053499817848206 0.6247000098228455
Si1328 Si 0.6069999933242798 0.7053499817848206 0.8747000098228455
Si1329 Si 0.10700000077486038 0.29464998841285706 0.12470000237226486
Si1330 Si 0.10700000077486038 0.29464998841285706 0.37470000982284546
Si1331 Si 0.10700000077486038 0.29464998841285706 0.6247000098228455
Si1332 Si 0.10700000077486038 0.29464998841285706 0.8747000098228455
Si1333 Si 0.10700000077486038 0.7946500182151794 0.12470000237226486
Si1334 Si 0.10700000077486038 0.7946500182151794 0.37470000982284546
Si1335 Si 0.10700000077486038 0.7946500182151794 0.6247000098228455
Si1336 Si 0.10700000077486038 0.7946500182151794 0.8747000098228455
Si1337 Si 0.6069999933242798 0.29464998841285706 0.12470000237226486
Si1338 Si 0.6069999933242798 0.29464998841285706 0.37470000982284546
Si1339 Si 0.6069999933242798 0.29464998841285706 0.6247000098228455
Si1340 Si 0.6069999933242798 0.29464998841285706 0.8747000098228455
Si1341 Si 0.6069999933242798 0.7946500182151794 0.12470000237226486
Si1342 Si 0.6069999933242798 0.7946500182151794 0.37470000982284546
Si1343 Si 0.6069999933242798 0.7946500182151794 0.6247000098228455
Si1344 Si 0.6069999933242798 0.7946500182151794 0.8747000098228455
Si1345 Si 0.14300000667572021 0.04464999958872795 0.12530000507831573
Si1346 Si 0.14300000667572021 0.04464999958872795 0.37529999017715454
Si1347 Si 0.14300000667572021 0.04464999958872795 0.6252999901771545
Si1348 Si 0.14300000667572021 0.04464999958872795 0.8752999901771545
Si1349 Si 0.14300000667572021 0.5446500182151794 0.12530000507831573
Si1350 Si 0.14300000667572021 0.5446500182151794 0.37529999017715454
Si1351 Si 0.14300000667572021 0.5446500182151794 0.6252999901771545
Si1352 Si 0.14300000667572021 0.5446500182151794 0.8752999901771545
Si1353 Si 0.6430000066757202 0.04464999958872795 0.12530000507831573
Si1354 Si 0.6430000066757202 0.04464999958872795 0.37529999017715454
Si1355 Si 0.6430000066757202 0.04464999958872795 0.6252999901771545
Si1356 Si 0.6430000066757202 0.04464999958872795 0.8752999901771545
Si1357 Si 0.6430000066757202 0.5446500182151794 0.12530000507831573
Si1358 Si 0.6430000066757202 0.5446500182151794 0.37529999017715454
Si1359 Si 0.6430000066757202 0.5446500182151794 0.6252999901771545
Si1360 Si 0.6430000066757202 0.5446500182151794 0.8752999901771545
Si1361 Si 0.14300000667572021 0.45535001158714294 0.12530000507831573
Si1362 Si 0.14300000667572021 0.45535001158714294 0.37529999017715454
Si1363 Si 0.14300000667572021 0.45535001158714294 0.6252999901771545
Si1364 Si 0.14300000667572021 0.45535001158714294 0.8752999901771545
Si1365 Si 0.14300000667572021 0.9553499817848206 0.12530000507831573
Si1366 Si 0.14300000667572021 0.9553499817848206 0.37529999017715454
Si1367 Si 0.14300000667572021 0.9553499817848206 0.6252999901771545
Si1368 Si 0.14300000667572021 0.9553499817848206 0.8752999901771545
Si1369 Si 0.6430000066757202 0.45535001158714294 0.12530000507831573
Si1370 Si 0.6430000066757202 0.45535001158714294 0.37529999017715454
Si1371 Si 0.6430000066757202 0.45535001158714294 0.6252999901771545
Si1372 Si 0.6430000066757202 0.45535001158714294 0.8752999901771545
Si1373 Si 0.6430000066757202 0.9553499817848206 0.12530000507831573
Si1374 Si 0.6430000066757202 0.9553499817848206 0.37529999017715454
Si1375 Si 0.6430000066757202 0.9553499817848206 0.6252999901771545
Si1376 Si 0.6430000066757202 0.9553499817848206 0.8752999901771545
Si1377 Si 0.1473499983549118 0.155349999666214 0.07112500071525574
Si1378 Si 0.1473499983549118 0.155349999666214 0.32112500071525574
Si1379 Si 0.1473499983549118 0.155349999666214 0.5711249709129333
Si1380 Si 0.1473499983549118 0.155349999666214 0.8211249709129333
Si1381 Si 0.1473499983549118 0.6553500294685364 0.07112500071525574
Si1382 Si 0.1473499983549118 0.6553500294685364 0.32112500071525574
Si1383 Si 0.1473499983549118 0.6553500294685364 0.5711249709129333
Si1384 Si 0.1473499983549118 0.6553500294685364 0.8211249709129333
Si1385 Si 0.647350013256073 0.155349999666214 0.07112500071525574
Si1386 Si 0.647350013256073 0.155349999666214 0.32112500071525574
Si1387 Si 0.647350013256073 0.155349999666214 0.5711249709129333
Si1388 Si 0.647350013256073 0.155349999666214 0.8211249709129333
Si1389 Si 0.647350013256073 0.6553500294685364 0.07112500071525574
Si1390 Si 0.647350013256073 0.6553500294685364 0.32112500071525574
Si1391 Si 0.647350013256073 0.6553500294685364 0.5711249709129333
Si1392 Si 0.647350013256073 0.6553500294685364 0.8211249709129333
Si1393 Si 0.1473499983549118 0.344650000333786 0.07112500071525574
Si1394 Si 0.1473499983549118 0.344650000333786 0.32112500071525574
Si1395 Si 0.1473499983549118 0.344650000333786 0.5711249709129333
Si1396 Si 0.1473499983549118 0.344650000333786 0.8211249709129333
Si1397 Si 0.1473499983549118 0.8446499705314636 0.07112500071525574
Si1398 Si 0.1473499983549118 0.8446499705314636 0.32112500071525574
Si1399 Si 0.1473499983549118 0.8446499705314636 0.5711249709129333
Si1400 Si 0.1473499983549118 0.8446499705314636 0.8211249709129333
Si1401 Si 0.647350013256073 0.344650000333786 0.07112500071525574
Si1402 Si 0.647350013256073 0.344650000333786 0.32112500071525574
Si1403 Si 0.647350013256073 0.344650000333786 0.5711249709129333
Si1404 Si 0.647350013256073 0.344650000333786 0.8211249709129333
Si1405 Si 0.647350013256073 0.8446499705314636 0.07112500071525574
Si1406 Si 0.647350013256073 0.8446499705314636 0.32112500071525574
Si1407 Si 0.647350013256073 0.8446499705314636 0.5711249709129333
Si1408 Si 0.647350013256073 0.8446499705314636 0.8211249709129333
Si1409 Si 0.1595499962568283 0.1657000035047531 0.2236499935388565
Si1410 Si 0.1595499962568283 0.1657000035047531 0.4736500084400177
Si1411 Si 0.1595499962568283 0.1657000035047531 0.7236499786376953
Si1412 Si 0.1595499962568283 0.1657000035047531 0.9736499786376953
Si1413 Si 0.1595499962568283 0.6657000184059143 0.2236499935388565
Si1414 Si 0.1595499962568283 0.6657000184059143 0.4736500084400177
Si1415 Si 0.1595499962568283 0.6657000184059143 0.7236499786376953
Si1416 Si 0.1595499962568283 0.6657000184059143 0.9736499786376953
Si1417 Si 0.6595500111579895 0.1657000035047531 0.2236499935388565
Si1418 Si 0.6595500111579895 0.1657000035047531 0.4736500084400177
Si1419 Si 0.6595500111579895 0.1657000035047531 0.7236499786376953
Si1420 Si 0.6595500111579895 0.1657000035047531 0.9736499786376953
Si1421 Si 0.6595500111579895 0.6657000184059143 0.2236499935388565
Si1422 Si 0.6595500111579895 0.6657000184059143 0.4736500084400177
Si1423 Si 0.6595500111579895 0.6657000184059143 0.7236499786376953
Si1424 Si 0.6595500111579895 0.6657000184059143 0.9736499786376953
Si1425 Si 0.1595499962568283 0.3343000113964081 0.2236499935388565
Si1426 Si 0.1595499962568283 0.3343000113964081 0.4736500084400177
Si1427 Si 0.1595499962568283 0.3343000113964081 0.7236499786376953
Si1428 Si 0.1595499962568283 0.3343000113964081 0.9736499786376953
Si1429 Si 0.1595499962568283 0.8342999815940857 0.2236499935388565
Si1430 Si 0.1595499962568283 0.8342999815940857 0.4736500084400177
Si1431 Si 0.1595499962568283 0.8342999815940857 0.7236499786376953
Si1432 Si 0.1595499962568283 0.8342999815940857 0.9736499786376953
Si1433 Si 0.6595500111579895 0.3343000113964081 0.2236499935388565
Si1434 Si 0.6595500111579895 0.3343000113964081 0.4736500084400177
Si1435 Si 0.6595500111579895 0.3343000113964081 0.7236499786376953
Si1436 Si 0.6595500111579895 0.3343000113964081 0.9736499786376953
Si1437 Si 0.6595500111579895 0.8342999815940857 0.2236499935388565
Si1438 Si 0.6595500111579895 0.8342999815940857 0.4736500084400177
Si1439 Si 0.6595500111579895 0.8342999815940857 0.7236499786376953
Si1440 Si 0.6595500111579895 0.8342999815940857 0.9736499786376953
Si1441 Si 0.2179500013589859 0.10095000267028809 0.1467999964952469
Si1442 Si 0.2179500013589859 0.10095000267028809 0.3968000113964081
Si1443 Si 0.2179500013589859 0.10095000267028809 0.6467999815940857
Si1444 Si 0.2179500013589859 0.10095000267028809 0.8967999815940857
Si1445 Si 0.2179500013589859 0.6009500026702881 0.1467999964952469
Si1446 Si 0.2179500013589859 0.6009500026702881 0.3968000113964081
Si1447 Si 0.2179500013589859 0.6009500026702881 0.6467999815940857
Si1448 Si 0.2179500013589859 0.6009500026702881 0.8967999815940857
Si1449 Si 0.7179499864578247 0.10095000267028809 0.1467999964952469
Si1450 Si 0.7179499864578247 0.10095000267028809 0.3968000113964081
Si1451 Si 0.7179499864578247 0.10095000267028809 0.6467999815940857
Si1452 Si 0.7179499864578247 0.10095000267028809 0.8967999815940857
Si1453 Si 0.7179499864578247 0.6009500026702881 0.1467999964952469
Si1454 Si 0.7179499864578247 0.6009500026702881 0.3968000113964081
Si1455 Si 0.7179499864578247 0.6009500026702881 0.6467999815940857
Si1456 Si 0.7179499864578247 0.6009500026702881 0.8967999815940857
Si1457 Si 0.2179500013589859 0.3990499973297119 0.1467999964952469
Si1458 Si 0.2179500013589859 0.3990499973297119 0.3968000113964081
Si1459 Si 0.2179500013589859 0.3990499973297119 0.6467999815940857
Si1460 Si 0.2179500013589859 0.3990499973297119 0.8967999815940857
Si1461 Si 0.2179500013589859 0.8990499973297119 0.1467999964952469
Si1462 Si 0.2179500013589859 0.8990499973297119 0.3968000113964081
Si1463 Si 0.2179500013589859 0.8990499973297119 0.6467999815940857
Si1464 Si 0.2179500013589859 0.8990499973297119 0.8967999815940857
Si1465 Si 0.7179499864578247 0.3990499973297119 0.1467999964952469
Si1466 Si 0.7179499864578247 0.3990499973297119 0.3968000113964081
Si1467 Si 0.7179499864578247 0.3990499973297119 0.6467999815940857
Si1468 Si 0.7179499864578247 0.3990499973297119 0.8967999815940857
Si1469 Si 0.7179499864578247 0.8990499973297119 0.1467999964952469
Si1470 Si 0.7179499864578247 0.8990499973297119 0.3968000113964081
Si1471 Si 0.7179499864578247 0.8990499973297119 0.6467999815940857
Si1472 Si 0.7179499864578247 0.8990499973297119 0.8967999815940857
Si1473 Si 0.25 0.1424500048160553 0.0
Si1474 Si 0.25 0.1424500048160553 0.25
Si1475 Si 0.25 0.1424500048160553 0.5
Si1476 Si 0.25 0.1424500048160553 0.75
Si1477 Si 0.25 0.6424499750137329 0.0
Si1478 Si 0.25 0.6424499750137329 0.25
Si1479 Si 0.25 0.6424499750137329 0.5
Si1480 Si 0.25 0.6424499750137329 0.75
Si1481 Si 0.75 0.1424500048160553 0.0
Si1482 Si 0.75 0.1424500048160553 0.25
Si1483 Si 0.75 0.1424500048160553 0.5
Si1484 Si 0.75 0.1424500048160553 0.75
Si1485 Si 0.75 0.6424499750137329 0.0
Si1486 Si 0.75 0.6424499750137329 0.25
Si1487 Si 0.75 0.6424499750137329 0.5
Si1488 Si 0.75 0.6424499750137329 0.75
Si1489 Si 0.25 0.3575499951839447 0.0
Si1490 Si 0.25 0.3575499951839447 0.25
Si1491 Si 0.25 0.3575499951839447 0.5
Si1492 Si 0.25 0.3575499951839447 0.75
Si1493 Si 0.25 0.8575500249862671 0.0
Si1494 Si 0.25 0.8575500249862671 0.25
Si1495 Si 0.25 0.8575500249862671 0.5
Si1496 Si 0.25 0.8575500249862671 0.75
Si1497 Si 0.75 0.3575499951839447 0.0
Si1498 Si 0.75 0.3575499951839447 0.25
Si1499 Si 0.75 0.3575499951839447 0.5
Si1500 Si 0.75 0.3575499951839447 0.75
Si1501 Si 0.75 0.8575500249862671 0.0
Si1502 Si 0.75 0.8575500249862671 0.25
Si1503 Si 0.75 0.8575500249862671 0.5
Si1504 Si 0.75 0.8575500249862671 0.75
Si1505 Si 0.2820500135421753 0.10095000267028809 0.10320000350475311
Si1506 Si 0.2820500135421753 0.10095000267028809 0.3531999886035919
Si1507 Si 0.2820500135421753 0.10095000267028809 0.6032000184059143
Si1508 Si 0.2820500135421753 0.10095000267028809 0.8532000184059143
Si1509 Si 0.2820500135421753 0.6009500026702881 0.10320000350475311
Si1510 Si 0.2820500135421753 0.6009500026702881 0.3531999886035919
Si1511 Si 0.2820500135421753 0.6009500026702881 0.6032000184059143
Si1512 Si 0.2820500135421753 0.6009500026702881 0.8532000184059143
Si1513 Si 0.7820500135421753 0.10095000267028809 0.10320000350475311
Si1514 Si 0.7820500135421753 0.10095000267028809 0.3531999886035919
Si1515 Si 0.7820500135421753 0.10095000267028809 0.6032000184059143
Si1516 Si 0.7820500135421753 0.10095000267028809 0.8532000184059143
Si1517 Si 0.7820500135421753 0.6009500026702881 0.10320000350475311
Si1518 Si 0.7820500135421753 0.6009500026702881 0.3531999886035919
Si1519 Si 0.7820500135421753 0.6009500026702881 0.6032000184059143
Si1520 Si 0.7820500135421753 0.6009500026702881 0.8532000184059143
Si1521 Si 0.2820500135421753 0.3990499973297119 0.10320000350475311
Si1522 Si 0.2820500135421753 0.3990499973297119 0.3531999886035919
Si1523 Si 0.2820500135421753 0.3990499973297119 0.6032000184059143
Si1524 Si 0.2820500135421753 0.3990499973297119 0.8532000184059143
Si1525 Si 0.2820500135421753 0.8990499973297119 0.10320000350475311
Si1526 Si 0.2820500135421753 0.8990499973297119 0.3531999886035919
Si1527 Si 0.2820500135421753 0.8990499973297119 0.6032000184059143
Si1528 Si 0.2820500135421753 0.8990499973297119 0.8532000184059143
Si1529 Si 0.7820500135421753 0.3990499973297119 0.10320000350475311
Si1530 Si 0.7820500135421753 0.3990499973297119 0.3531999886035919
Si1531 Si 0.7820500135421753 0.3990499973297119 0.6032000184059143
Si1532 Si 0.7820500135421753 0.3990499973297119 0.8532000184059143
Si1533 Si 0.7820500135421753 0.8990499973297119 0.10320000350475311
Si1534 Si 0.7820500135421753 0.8990499973297119 0.3531999886035919
Si1535 Si 0.7820500135421753 0.8990499973297119 0.6032000184059143
Si1536 Si 0.7820500135421753 0.8990499973297119 0.8532000184059143
Si1537 Si 0.3404499888420105 0.1657000035047531 0.026350000873208046
Si1538 Si 0.3404499888420105 0.1657000035047531 0.2763499915599823
Si1539 Si 0.3404499888420105 0.1657000035047531 0.5263500213623047
Si1540 Si 0.3404499888420105 0.1657000035047531 0.7763500213623047
Si1541 Si 0.3404499888420105 0.6657000184059143 0.026350000873208046
Si1542 Si 0.3404499888420105 0.6657000184059143 0.2763499915599823
Si1543 Si 0.3404499888420105 0.6657000184059143 0.5263500213623047
Si1544 Si 0.3404499888420105 0.6657000184059143 0.7763500213623047
Si1545 Si 0.8404499888420105 0.1657000035047531 0.026350000873208046
Si1546 Si 0.8404499888420105 0.1657000035047531 0.2763499915599823
Si1547 Si 0.8404499888420105 0.1657000035047531 0.5263500213623047
Si1548 Si 0.8404499888420105 0.1657000035047531 0.7763500213623047
Si1549 Si 0.8404499888420105 0.6657000184059143 0.026350000873208046
Si1550 Si 0.8404499888420105 0.6657000184059143 0.2763499915599823
Si1551 Si 0.8404499888420105 0.6657000184059143 0.5263500213623047
Si1552 Si 0.8404499888420105 0.6657000184059143 0.7763500213623047
Si1553 Si 0.3404499888420105 0.3343000113964081 0.026350000873208046
Si1554 Si 0.3404499888420105 0.3343000113964081 0.2763499915599823
Si1555 Si 0.3404499888420105 0.3343000113964081 0.5263500213623047
Si1556 Si 0.3404499888420105 0.3343000113964081 0.7763500213623047
Si1557 Si 0.3404499888420105 0.8342999815940857 0.026350000873208046
Si1558 Si 0.3404499888420105 0.8342999815940857 0.2763499915599823
Si1559 Si 0.3404499888420105 0.8342999815940857 0.5263500213623047
Si1560 Si 0.3404499888420105 0.8342999815940857 0.7763500213623047
Si1561 Si 0.8404499888420105 0.3343000113964081 0.026350000873208046
Si1562 Si 0.8404499888420105 0.3343000113964081 0.2763499915599823
Si1563 Si 0.8404499888420105 0.3343000113964081 0.5263500213623047
Si1564 Si 0.8404499888420105 0.3343000113964081 0.7763500213623047
Si1565 Si 0.8404499888420105 0.8342999815940857 0.026350000873208046
Si1566 Si 0.8404499888420105 0.8342999815940857 0.2763499915599823
Si1567 Si 0.8404499888420105 0.8342999815940857 0.5263500213623047
Si1568 Si 0.8404499888420105 0.8342999815940857 0.7763500213623047
Si1569 Si 0.352649986743927 0.155349999666214 0.17887499928474426
Si1570 Si 0.352649986743927 0.155349999666214 0.42887499928474426
Si1571 Si 0.352649986743927 0.155349999666214 0.6788750290870667
Si1572 Si 0.352649986743927 0.155349999666214 0.9288750290870667
Si1573 Si 0.352649986743927 0.6553500294685364 0.17887499928474426
Si1574 Si 0.352649986743927 0.6553500294685364 0.42887499928474426
Si1575 Si 0.352649986743927 0.6553500294685364 0.6788750290870667
Si1576 Si 0.352649986743927 0.6553500294685364 0.9288750290870667
Si1577 Si 0.852649986743927 0.155349999666214 0.17887499928474426
Si1578 Si 0.852649986743927 0.155349999666214 0.42887499928474426
Si1579 Si 0.852649986743927 0.155349999666214 0.6788750290870667
Si1580 Si 0.852649986743927 0.155349999666214 0.9288750290870667
Si1581 Si 0.852649986743927 0.6553500294685364 0.17887499928474426
Si1582 Si 0.852649986743927 0.6553500294685364 0.42887499928474426
Si1583 Si 0.852649986743927 0.6553500294685364 0.6788750290870667
Si1584 Si 0.852649986743927 0.6553500294685364 0.9288750290870667
Si1585 Si 0.352649986743927 0.344650000333786 0.17887499928474426
Si1586 Si 0.352649986743927 0.344650000333786 0.42887499928474426
Si1587 Si 0.352649986743927 0.344650000333786 0.6788750290870667
Si1588 Si 0.352649986743927 0.344650000333786 0.9288750290870667
Si1589 Si 0.352649986743927 0.8446499705314636 0.17887499928474426
Si1590 Si 0.352649986743927 0.8446499705314636 0.42887499928474426
Si1591 Si 0.352649986743927 0.8446499705314636 0.6788750290870667
Si1592 Si 0.352649986743927 0.8446499705314636 0.9288750290870667
Si1593 Si 0.852649986743927 0.344650000333786 0.17887499928474426
Si1594 Si 0.852649986743927 0.344650000333786 0.42887499928474426
Si1595 Si 0.852649986743927 0.344650000333786 0.6788750290870667
Si1596 Si 0.852649986743927 0.344650000333786 0.9288750290870667
Si1597 Si 0.852649986743927 0.8446499705314636 0.17887499928474426
Si1598 Si 0.852649986743927 0.8446499705314636 0.42887499928474426
Si1599 Si 0.852649986743927 0.8446499705314636 0.6788750290870667
Si1600 Si 0.852649986743927 0.8446499705314636 0.9288750290870667
Si1601 Si 0.3569999933242798 0.04464999958872795 0.12470000237226486
Si1602 Si 0.3569999933242798 0.04464999958872795 0.37470000982284546
Si1603 Si 0.3569999933242798 0.04464999958872795 0.6247000098228455
Si1604 Si 0.3569999933242798 0.04464999958872795 0.8747000098228455
Si1605 Si 0.3569999933242798 0.5446500182151794 0.12470000237226486
Si1606 Si 0.3569999933242798 0.5446500182151794 0.37470000982284546
Si1607 Si 0.3569999933242798 0.5446500182151794 0.6247000098228455
Si1608 Si 0.3569999933242798 0.5446500182151794 0.8747000098228455
Si1609 Si 0.8569999933242798 0.04464999958872795 0.12470000237226486
Si1610 Si 0.8569999933242798 0.04464999958872795 0.37470000982284546
Si1611 Si 0.8569999933242798 0.04464999958872795 0.6247000098228455
Si1612 Si 0.8569999933242798 0.04464999958872795 0.8747000098228455
Si1613 Si 0.8569999933242798 0.5446500182151794 0.12470000237226486
Si1614 Si 0.8569999933242798 0.5446500182151794 0.37470000982284546
Si1615 Si 0.8569999933242798 0.5446500182151794 0.6247000098228455
Si1616 Si 0.8569999933242798 0.5446500182151794 0.8747000098228455
Si1617 Si 0.3569999933242798 0.45535001158714294 0.12470000237226486
Si1618 Si 0.3569999933242798 0.45535001158714294 0.37470000982284546
Si1619 Si 0.3569999933242798 0.45535001158714294 0.6247000098228455
Si1620 Si 0.3569999933242798 0.45535001158714294 0.8747000098228455
Si1621 Si 0.3569999933242798 0.9553499817848206 0.12470000237226486
Si1622 Si 0.3569999933242798 0.9553499817848206 0.37470000982284546
Si1623 Si 0.3569999933242798 0.9553499817848206 0.6247000098228455
Si1624 Si 0.3569999933242798 0.9553499817848206 0.8747000098228455
Si1625 Si 0.8569999933242798 0.45535001158714294 0.12470000237226486
Si1626 Si 0.8569999933242798 0.45535001158714294 0.37470000982284546
Si1627 Si 0.8569999933242798 0.45535001158714294 0.6247000098228455
Si1628 Si 0.8569999933242798 0.45535001158714294 0.8747000098228455
Si1629 Si 0.8569999933242798 0.9553499817848206 0.12470000237226486
Si1630 Si 0.8569999933242798 0.9553499817848206 0.37470000982284546
Si1631 Si 0.8569999933242798 0.9553499817848206 0.6247000098228455
Si1632 Si 0.8569999933242798 0.9553499817848206 0.8747000098228455
Si1633 Si 0.3930000066757202 0.20534999668598175 0.12530000507831573
Si1634 Si 0.3930000066757202 0.20534999668598175 0.37529999017715454
Si1635 Si 0.3930000066757202 0.20534999668598175 0.6252999901771545
Si1636 Si 0.3930000066757202 0.20534999668598175 0.8752999901771545
Si1637 Si 0.3930000066757202 0.7053499817848206 0.12530000507831573
Si1638 Si 0.3930000066757202 0.7053499817848206 0.37529999017715454
Si1639 Si 0.3930000066757202 0.7053499817848206 0.6252999901771545
Si1640 Si 0.3930000066757202 0.7053499817848206 0.8752999901771545
Si1641 Si 0.8930000066757202 0.20534999668598175 0.12530000507831573
Si1642 Si 0.8930000066757202 0.20534999668598175 0.37529999017715454
Si1643 Si 0.8930000066757202 0.20534999668598175 0.6252999901771545
Si1644 Si 0.8930000066757202 0.20534999668598175 0.8752999901771545
Si1645 Si 0.8930000066757202 0.7053499817848206 0.12530000507831573
Si1646 Si 0.8930000066757202 0.7053499817848206 0.37529999017715454
Si1647 Si 0.8930000066757202 0.7053499817848206 0.6252999901771545
Si1648 Si 0.8930000066757202 0.7053499817848206 0.8752999901771545
Si1649 Si 0.3930000066757202 0.29464998841285706 0.12530000507831573
Si1650 Si 0.3930000066757202 0.29464998841285706 0.37529999017715454
Si1651 Si 0.3930000066757202 0.29464998841285706 0.6252999901771545
Si1652 Si 0.3930000066757202 0.29464998841285706 0.8752999901771545
Si1653 Si 0.3930000066757202 0.7946500182151794 0.12530000507831573
Si1654 Si 0.3930000066757202 0.7946500182151794 0.37529999017715454
Si1655 Si 0.3930000066757202 0.7946500182151794 0.6252999901771545
Si1656 Si 0.3930000066757202 0.7946500182151794 0.8752999901771545
Si1657 Si 0.8930000066757202 0.29464998841285706 0.12530000507831573
Si1658 Si 0.8930000066757202 0.29464998841285706 0.37529999017715454
Si1659 Si 0.8930000066757202 0.29464998841285706 0.6252999901771545
Si1660 Si 0.8930000066757202 0.29464998841285706 0.8752999901771545
Si1661 Si 0.8930000066757202 0.7946500182151794 0.12530000507831573
Si1662 Si 0.8930000066757202 0.7946500182151794 0.37529999017715454
Si1663 Si 0.8930000066757202 0.7946500182151794 0.6252999901771545
Si1664 Si 0.8930000066757202 0.7946500182151794 0.8752999901771545
Si1665 Si 0.397350013256073 0.09465000033378601 0.07112500071525574
Si1666 Si 0.397350013256073 0.09465000033378601 0.32112500071525574
Si1667 Si 0.397350013256073 0.09465000033378601 0.5711249709129333
Si1668 Si 0.397350013256073 0.09465000033378601 0.8211249709129333
Si1669 Si 0.397350013256073 0.5946499705314636 0.07112500071525574
Si1670 Si 0.397350013256073 0.5946499705314636 0.32112500071525574
Si1671 Si 0.397350013256073 0.5946499705314636 0.5711249709129333
Si1672 Si 0.397350013256073 0.5946499705314636 0.8211249709129333
Si1673 Si 0.897350013256073 0.09465000033378601 0.07112500071525574
Si1674 Si 0.897350013256073 0.09465000033378601 0.32112500071525574
Si1675 Si 0.897350013256073 0.09465000033378601 0.5711249709129333
Si1676 Si 0.897350013256073 0.09465000033378601 0.8211249709129333
Si1677 Si 0.897350013256073 0.5946499705314636 0.07112500071525574
Si1678 Si 0.897350013256073 0.5946499705314636 0.32112500071525574
Si1679 Si 0.897350013256073 0.5946499705314636 0.5711249709129333
Si1680 Si 0.897350013256073 0.5946499705314636 0.8211249709129333
Si1681 Si 0.397350013256073 0.405349999666214 0.07112500071525574
Si1682 Si 0.397350013256073 0.405349999666214 0.32112500071525574
Si1683 Si 0.397350013256073 0.405349999666214 0.5711249709129333
Si1684 Si 0.397350013256073 0.405349999666214 0.8211249709129333
Si1685 Si 0.397350013256073 0.9053500294685364 0.07112500071525574
Si1686 Si 0.397350013256073 0.9053500294685364 0.32112500071525574
Si1687 Si 0.397350013256073 0.9053500294685364 0.5711249709129333
Si1688 Si 0.397350013256073 0.9053500294685364 0.8211249709129333
Si1689 Si 0.897350013256073 0.405349999666214 0.07112500071525574
Si1690 Si 0.897350013256073 0.405349999666214 0.32112500071525574
Si1691 Si 0.897350013256073 0.405349999666214 0.5711249709129333
Si1692 Si 0.897350013256073 0.405349999666214 0.8211249709129333
Si1693 Si 0.897350013256073 0.9053500294685364 0.07112500071525574
Si1694 Si 0.897350013256073 0.9053500294685364 0.32112500071525574
Si1695 Si 0.897350013256073 0.9053500294685364 0.5711249709129333
Si1696 Si 0.897350013256073 0.9053500294685364 0.8211249709129333
Si1697 Si 0.4095500111579895 0.08429999649524689 0.2236499935388565
Si1698 Si 0.4095500111579895 0.08429999649524689 0.4736500084400177
Si1699 Si 0.4095500111579895 0.08429999649524689 0.7236499786376953
Si1700 Si 0.4095500111579895 0.08429999649524689 0.9736499786376953
Si1701 Si 0.4095500111579895 0.5842999815940857 0.2236499935388565
Si1702 Si 0.4095500111579895 0.5842999815940857 0.4736500084400177
Si1703 Si 0.4095500111579895 0.5842999815940857 0.7236499786376953
Si1704 Si 0.4095500111579895 0.5842999815940857 0.9736499786376953
Si1705 Si 0.9095500111579895 0.08429999649524689 0.2236499935388565
Si1706 Si 0.9095500111579895 0.08429999649524689 0.4736500084400177
Si1707 Si 0.9095500111579895 0.08429999649524689 0.7236499786376953
Si1708 Si 0.9095500111579895 0.08429999649524689 0.9736499786376953
Si1709 Si 0.9095500111579895 0.5842999815940857 0.2236499935388565
Si1710 Si 0.9095500111579895 0.5842999815940857 0.4736500084400177
Si1711 Si 0.9095500111579895 0.5842999815940857 0.7236499786376953
Si1712 Si 0.9095500111579895 0.5842999815940857 0.9736499786376953
Si1713 Si 0.4095500111579895 0.4156999886035919 0.2236499935388565
Si1714 Si 0.4095500111579895 0.4156999886035919 0.4736500084400177
Si1715 Si 0.4095500111579895 0.4156999886035919 0.7236499786376953
Si1716 Si 0.4095500111579895 0.4156999886035919 0.9736499786376953
Si1717 Si 0.4095500111579895 0.9157000184059143 0.2236499935388565
Si1718 Si 0.4095500111579895 0.9157000184059143 0.4736500084400177
Si1719 Si 0.4095500111579895 0.9157000184059143 0.7236499786376953
Si1720 Si 0.4095500111579895 0.9157000184059143 0.9736499786376953
Si1721 Si 0.9095500111579895 0.4156999886035919 0.2236499935388565
Si1722 Si 0.9095500111579895 0.4156999886035919 0.4736500084400177
Si1723 Si 0.9095500111579895 0.4156999886035919 0.7236499786376953
Si1724 Si 0.9095500111579895 0.4156999886035919 0.9736499786376953
Si1725 Si 0.9095500111579895 0.9157000184059143 0.2236499935388565
Si1726 Si 0.9095500111579895 0.9157000184059143 0.4736500084400177
Si1727 Si 0.9095500111579895 0.9157000184059143 0.7236499786376953
Si1728 Si 0.9095500111579895 0.9157000184059143 0.9736499786376953
Si1729 Si 0.4679499864578247 0.14904999732971191 0.1467999964952469
Si1730 Si 0.4679499864578247 0.14904999732971191 0.3968000113964081
Si1731 Si 0.4679499864578247 0.14904999732971191 0.6467999815940857
Si1732 Si 0.4679499864578247 0.14904999732971191 0.8967999815940857
Si1733 Si 0.4679499864578247 0.6490499973297119 0.1467999964952469
Si1734 Si 0.4679499864578247 0.6490499973297119 0.3968000113964081
Si1735 Si 0.4679499864578247 0.6490499973297119 0.6467999815940857
Si1736 Si 0.4679499864578247 0.6490499973297119 0.8967999815940857
Si1737 Si 0.9679499864578247 0.14904999732971191 0.1467999964952469
Si1738 Si 0.9679499864578247 0.14904999732971191 0.3968000113964081
Si1739 Si 0.9679499864578247 0.14904999732971191 0.6467999815940857
Si1740 Si 0.9679499864578247 0.14904999732971191 0.8967999815940857
Si1741 Si 0.9679499864578247 0.6490499973297119 0.1467999964952469
Si1742 Si 0.9679499864578247 0.6490499973297119 0.3968000113964081
Si1743 Si 0.9679499864578247 0.6490499973297119 0.6467999815940857
Si1744 Si 0.9679499864578247 0.6490499973297119 0.8967999815940857
Si1745 Si 0.4679499864578247 0.3509500026702881 0.1467999964952469
Si1746 Si 0.4679499864578247 0.3509500026702881 0.3968000113964081
Si1747 Si 0.4679499864578247 0.3509500026702881 0.6467999815940857
Si1748 Si 0.4679499864578247 0.3509500026702881 0.8967999815940857
Si1749 Si 0.4679499864578247 0.8509500026702881 0.1467999964952469
Si1750 Si 0.4679499864578247 0.8509500026702881 0.3968000113964081
Si1751 Si 0.4679499864578247 0.8509500026702881 0.6467999815940857
Si1752 Si 0.4679499864578247 0.8509500026702881 0.8967999815940857
Si1753 Si 0.9679499864578247 0.3509500026702881 0.1467999964952469
Si1754 Si 0.9679499864578247 0.3509500026702881 0.3968000113964081
Si1755 Si 0.9679499864578247 0.3509500026702881 0.6467999815940857
Si1756 Si 0.9679499864578247 0.3509500026702881 0.8967999815940857
Si1757 Si 0.9679499864578247 0.8509500026702881 0.1467999964952469
Si1758 Si 0.9679499864578247 0.8509500026702881 0.3968000113964081
Si1759 Si 0.9679499864578247 0.8509500026702881 0.6467999815940857
Si1760 Si 0.9679499864578247 0.8509500026702881 0.8967999815940857
