data_image0
_symmetry_space_group_name_H-M    "P 1"
_symmetry_int_tables_number       1

loop_
 _symmetry_equiv_pos_as_xyz
 'x, y, z'

_cell_length_a	37.156
_cell_length_b	37.156
_cell_length_c	37.156
_cell_angle_alpha	90.0000
_cell_angle_beta	90.0000
_cell_angle_gamma	90.0000

loop_
 _atom_site_label
 _atom_site_type_symbol
 _atom_site_fract_x
 _atom_site_fract_y
 _atom_site_fract_z
O1 O 0.0 0.09279999881982803 0.16740000247955322
O2 O 0.0 0.09279999881982803 0.6674000024795532
O3 O 0.0 0.5928000211715698 0.16740000247955322
O4 O 0.0 0.5928000211715698 0.6674000024795532
O5 O 0.5 0.09279999881982803 0.16740000247955322
O6 O 0.5 0.09279999881982803 0.6674000024795532
O7 O 0.5 0.5928000211715698 0.16740000247955322
O8 O 0.5 0.5928000211715698 0.6674000024795532
O9 O 0.0 0.09279999881982803 0.3325999975204468
O10 O 0.0 0.09279999881982803 0.8325999975204468
O11 O 0.0 0.5928000211715698 0.3325999975204468
O12 O 0.0 0.5928000211715698 0.8325999975204468
O13 O 0.5 0.09279999881982803 0.3325999975204468
O14 O 0.5 0.09279999881982803 0.8325999975204468
O15 O 0.5 0.5928000211715698 0.3325999975204468
O16 O 0.5 0.5928000211715698 0.8325999975204468
O17 O 0.0 0.16740000247955322 0.09279999881982803
O18 O 0.0 0.16740000247955322 0.5928000211715698
O19 O 0.0 0.6674000024795532 0.09279999881982803
O20 O 0.0 0.6674000024795532 0.5928000211715698
O21 O 0.5 0.16740000247955322 0.09279999881982803
O22 O 0.5 0.16740000247955322 0.5928000211715698
O23 O 0.5 0.6674000024795532 0.09279999881982803
O24 O 0.5 0.6674000024795532 0.5928000211715698
O25 O 0.0 0.16740000247955322 0.40720000863075256
O26 O 0.0 0.16740000247955322 0.9071999788284302
O27 O 0.0 0.6674000024795532 0.40720000863075256
O28 O 0.0 0.6674000024795532 0.9071999788284302
O29 O 0.5 0.16740000247955322 0.40720000863075256
O30 O 0.5 0.16740000247955322 0.9071999788284302
O31 O 0.5 0.6674000024795532 0.40720000863075256
O32 O 0.5 0.6674000024795532 0.9071999788284302
O33 O 0.0 0.3325999975204468 0.09279999881982803
O34 O 0.0 0.3325999975204468 0.5928000211715698
O35 O 0.0 0.8325999975204468 0.09279999881982803
O36 O 0.0 0.8325999975204468 0.5928000211715698
O37 O 0.5 0.3325999975204468 0.09279999881982803
O38 O 0.5 0.3325999975204468 0.5928000211715698
O39 O 0.5 0.8325999975204468 0.09279999881982803
O40 O 0.5 0.8325999975204468 0.5928000211715698
O41 O 0.0 0.3325999975204468 0.40720000863075256
O42 O 0.0 0.3325999975204468 0.9071999788284302
O43 O 0.0 0.8325999975204468 0.40720000863075256
O44 O 0.0 0.8325999975204468 0.9071999788284302
O45 O 0.5 0.3325999975204468 0.40720000863075256
O46 O 0.5 0.3325999975204468 0.9071999788284302
O47 O 0.5 0.8325999975204468 0.40720000863075256
O48 O 0.5 0.8325999975204468 0.9071999788284302
O49 O 0.0 0.40720000863075256 0.16740000247955322
O50 O 0.0 0.40720000863075256 0.6674000024795532
O51 O 0.0 0.9071999788284302 0.16740000247955322
O52 O 0.0 0.9071999788284302 0.6674000024795532
O53 O 0.5 0.40720000863075256 0.16740000247955322
O54 O 0.5 0.40720000863075256 0.6674000024795532
O55 O 0.5 0.9071999788284302 0.16740000247955322
O56 O 0.5 0.9071999788284302 0.6674000024795532
O57 O 0.0 0.40720000863075256 0.3325999975204468
O58 O 0.0 0.40720000863075256 0.8325999975204468
O59 O 0.0 0.9071999788284302 0.3325999975204468
O60 O 0.0 0.9071999788284302 0.8325999975204468
O61 O 0.5 0.40720000863075256 0.3325999975204468
O62 O 0.5 0.40720000863075256 0.8325999975204468
O63 O 0.5 0.9071999788284302 0.3325999975204468
O64 O 0.5 0.9071999788284302 0.8325999975204468
O65 O 0.045899998396635056 0.12240000069141388 0.12240000069141388
O66 O 0.045899998396635056 0.12240000069141388 0.6223999857902527
O67 O 0.045899998396635056 0.6223999857902527 0.12240000069141388
O68 O 0.045899998396635056 0.6223999857902527 0.6223999857902527
O69 O 0.5458999872207642 0.12240000069141388 0.12240000069141388
O70 O 0.5458999872207642 0.12240000069141388 0.6223999857902527
O71 O 0.5458999872207642 0.6223999857902527 0.12240000069141388
O72 O 0.5458999872207642 0.6223999857902527 0.6223999857902527
O73 O 0.045899998396635056 0.12240000069141388 0.3776000142097473
O74 O 0.045899998396635056 0.12240000069141388 0.8776000142097473
O75 O 0.045899998396635056 0.6223999857902527 0.3776000142097473
O76 O 0.045899998396635056 0.6223999857902527 0.8776000142097473
O77 O 0.5458999872207642 0.12240000069141388 0.3776000142097473
O78 O 0.5458999872207642 0.12240000069141388 0.8776000142097473
O79 O 0.5458999872207642 0.6223999857902527 0.3776000142097473
O80 O 0.5458999872207642 0.6223999857902527 0.8776000142097473
O81 O 0.045899998396635056 0.3776000142097473 0.12240000069141388
O82 O 0.045899998396635056 0.3776000142097473 0.6223999857902527
O83 O 0.045899998396635056 0.8776000142097473 0.12240000069141388
O84 O 0.045899998396635056 0.8776000142097473 0.6223999857902527
O85 O 0.5458999872207642 0.3776000142097473 0.12240000069141388
O86 O 0.5458999872207642 0.3776000142097473 0.6223999857902527
O87 O 0.5458999872207642 0.8776000142097473 0.12240000069141388
O88 O 0.5458999872207642 0.8776000142097473 0.6223999857902527
O89 O 0.045899998396635056 0.3776000142097473 0.3776000142097473
O90 O 0.045899998396635056 0.3776000142097473 0.8776000142097473
O91 O 0.045899998396635056 0.8776000142097473 0.3776000142097473
O92 O 0.045899998396635056 0.8776000142097473 0.8776000142097473
O93 O 0.5458999872207642 0.3776000142097473 0.3776000142097473
O94 O 0.5458999872207642 0.3776000142097473 0.8776000142097473
O95 O 0.5458999872207642 0.8776000142097473 0.3776000142097473
O96 O 0.5458999872207642 0.8776000142097473 0.8776000142097473
O97 O 0.05790000036358833 0.125 0.19210000336170197
O98 O 0.05790000036358833 0.125 0.6920999884605408
O99 O 0.05790000036358833 0.625 0.19210000336170197
O100 O 0.05790000036358833 0.625 0.6920999884605408
O101 O 0.5579000115394592 0.125 0.19210000336170197
O102 O 0.5579000115394592 0.125 0.6920999884605408
O103 O 0.5579000115394592 0.625 0.19210000336170197
O104 O 0.5579000115394592 0.625 0.6920999884605408
O105 O 0.05790000036358833 0.125 0.30790001153945923
O106 O 0.05790000036358833 0.125 0.8079000115394592
O107 O 0.05790000036358833 0.625 0.30790001153945923
O108 O 0.05790000036358833 0.625 0.8079000115394592
O109 O 0.5579000115394592 0.125 0.30790001153945923
O110 O 0.5579000115394592 0.125 0.8079000115394592
O111 O 0.5579000115394592 0.625 0.30790001153945923
O112 O 0.5579000115394592 0.625 0.8079000115394592
O113 O 0.05790000036358833 0.19210000336170197 0.125
O114 O 0.05790000036358833 0.19210000336170197 0.625
O115 O 0.05790000036358833 0.6920999884605408 0.125
O116 O 0.05790000036358833 0.6920999884605408 0.625
O117 O 0.5579000115394592 0.19210000336170197 0.125
O118 O 0.5579000115394592 0.19210000336170197 0.625
O119 O 0.5579000115394592 0.6920999884605408 0.125
O120 O 0.5579000115394592 0.6920999884605408 0.625
O121 O 0.05790000036358833 0.19210000336170197 0.375
O122 O 0.05790000036358833 0.19210000336170197 0.875
O123 O 0.05790000036358833 0.6920999884605408 0.375
O124 O 0.05790000036358833 0.6920999884605408 0.875
O125 O 0.5579000115394592 0.19210000336170197 0.375
O126 O 0.5579000115394592 0.19210000336170197 0.875
O127 O 0.5579000115394592 0.6920999884605408 0.375
O128 O 0.5579000115394592 0.6920999884605408 0.875
O129 O 0.05790000036358833 0.30790001153945923 0.125
O130 O 0.05790000036358833 0.30790001153945923 0.625
O131 O 0.05790000036358833 0.8079000115394592 0.125
O132 O 0.05790000036358833 0.8079000115394592 0.625
O133 O 0.5579000115394592 0.30790001153945923 0.125
O134 O 0.5579000115394592 0.30790001153945923 0.625
O135 O 0.5579000115394592 0.8079000115394592 0.125
O136 O 0.5579000115394592 0.8079000115394592 0.625
O137 O 0.05790000036358833 0.30790001153945923 0.375
O138 O 0.05790000036358833 0.30790001153945923 0.875
O139 O 0.05790000036358833 0.8079000115394592 0.375
O140 O 0.05790000036358833 0.8079000115394592 0.875
O141 O 0.5579000115394592 0.30790001153945923 0.375
O142 O 0.5579000115394592 0.30790001153945923 0.875
O143 O 0.5579000115394592 0.8079000115394592 0.375
O144 O 0.5579000115394592 0.8079000115394592 0.875
O145 O 0.05790000036358833 0.375 0.19210000336170197
O146 O 0.05790000036358833 0.375 0.6920999884605408
O147 O 0.05790000036358833 0.875 0.19210000336170197
O148 O 0.05790000036358833 0.875 0.6920999884605408
O149 O 0.5579000115394592 0.375 0.19210000336170197
O150 O 0.5579000115394592 0.375 0.6920999884605408
O151 O 0.5579000115394592 0.875 0.19210000336170197
O152 O 0.5579000115394592 0.875 0.6920999884605408
O153 O 0.05790000036358833 0.375 0.30790001153945923
O154 O 0.05790000036358833 0.375 0.8079000115394592
O155 O 0.05790000036358833 0.875 0.30790001153945923
O156 O 0.05790000036358833 0.875 0.8079000115394592
O157 O 0.5579000115394592 0.375 0.30790001153945923
O158 O 0.5579000115394592 0.375 0.8079000115394592
O159 O 0.5579000115394592 0.875 0.30790001153945923
O160 O 0.5579000115394592 0.875 0.8079000115394592
O161 O 0.06355000287294388 0.06355000287294388 0.15745000541210175
O162 O 0.06355000287294388 0.06355000287294388 0.6574500203132629
O163 O 0.06355000287294388 0.5635499954223633 0.15745000541210175
O164 O 0.06355000287294388 0.5635499954223633 0.6574500203132629
O165 O 0.5635499954223633 0.06355000287294388 0.15745000541210175
O166 O 0.5635499954223633 0.06355000287294388 0.6574500203132629
O167 O 0.5635499954223633 0.5635499954223633 0.15745000541210175
O168 O 0.5635499954223633 0.5635499954223633 0.6574500203132629
O169 O 0.06355000287294388 0.06355000287294388 0.34255000948905945
O170 O 0.06355000287294388 0.06355000287294388 0.8425499796867371
O171 O 0.06355000287294388 0.5635499954223633 0.34255000948905945
O172 O 0.06355000287294388 0.5635499954223633 0.8425499796867371
O173 O 0.5635499954223633 0.06355000287294388 0.34255000948905945
O174 O 0.5635499954223633 0.06355000287294388 0.8425499796867371
O175 O 0.5635499954223633 0.5635499954223633 0.34255000948905945
O176 O 0.5635499954223633 0.5635499954223633 0.8425499796867371
O177 O 0.06355000287294388 0.15745000541210175 0.06355000287294388
O178 O 0.06355000287294388 0.15745000541210175 0.5635499954223633
O179 O 0.06355000287294388 0.6574500203132629 0.06355000287294388
O180 O 0.06355000287294388 0.6574500203132629 0.5635499954223633
O181 O 0.5635499954223633 0.15745000541210175 0.06355000287294388
O182 O 0.5635499954223633 0.15745000541210175 0.5635499954223633
O183 O 0.5635499954223633 0.6574500203132629 0.06355000287294388
O184 O 0.5635499954223633 0.6574500203132629 0.5635499954223633
O185 O 0.06355000287294388 0.15745000541210175 0.4364500045776367
O186 O 0.06355000287294388 0.15745000541210175 0.9364500045776367
O187 O 0.06355000287294388 0.6574500203132629 0.4364500045776367
O188 O 0.06355000287294388 0.6574500203132629 0.9364500045776367
O189 O 0.5635499954223633 0.15745000541210175 0.4364500045776367
O190 O 0.5635499954223633 0.15745000541210175 0.9364500045776367
O191 O 0.5635499954223633 0.6574500203132629 0.4364500045776367
O192 O 0.5635499954223633 0.6574500203132629 0.9364500045776367
O193 O 0.06355000287294388 0.34255000948905945 0.06355000287294388
O194 O 0.06355000287294388 0.34255000948905945 0.5635499954223633
O195 O 0.06355000287294388 0.8425499796867371 0.06355000287294388
O196 O 0.06355000287294388 0.8425499796867371 0.5635499954223633
O197 O 0.5635499954223633 0.34255000948905945 0.06355000287294388
O198 O 0.5635499954223633 0.34255000948905945 0.5635499954223633
O199 O 0.5635499954223633 0.8425499796867371 0.06355000287294388
O200 O 0.5635499954223633 0.8425499796867371 0.5635499954223633
O201 O 0.06355000287294388 0.34255000948905945 0.4364500045776367
O202 O 0.06355000287294388 0.34255000948905945 0.9364500045776367
O203 O 0.06355000287294388 0.8425499796867371 0.4364500045776367
O204 O 0.06355000287294388 0.8425499796867371 0.9364500045776367
O205 O 0.5635499954223633 0.34255000948905945 0.4364500045776367
O206 O 0.5635499954223633 0.34255000948905945 0.9364500045776367
O207 O 0.5635499954223633 0.8425499796867371 0.4364500045776367
O208 O 0.5635499954223633 0.8425499796867371 0.9364500045776367
O209 O 0.06355000287294388 0.4364500045776367 0.15745000541210175
O210 O 0.06355000287294388 0.4364500045776367 0.6574500203132629
O211 O 0.06355000287294388 0.9364500045776367 0.15745000541210175
O212 O 0.06355000287294388 0.9364500045776367 0.6574500203132629
O213 O 0.5635499954223633 0.4364500045776367 0.15745000541210175
O214 O 0.5635499954223633 0.4364500045776367 0.6574500203132629
O215 O 0.5635499954223633 0.9364500045776367 0.15745000541210175
O216 O 0.5635499954223633 0.9364500045776367 0.6574500203132629
O217 O 0.06355000287294388 0.4364500045776367 0.34255000948905945
O218 O 0.06355000287294388 0.4364500045776367 0.8425499796867371
O219 O 0.06355000287294388 0.9364500045776367 0.34255000948905945
O220 O 0.06355000287294388 0.9364500045776367 0.8425499796867371
O221 O 0.5635499954223633 0.4364500045776367 0.34255000948905945
O222 O 0.5635499954223633 0.4364500045776367 0.8425499796867371
O223 O 0.5635499954223633 0.9364500045776367 0.34255000948905945
O224 O 0.5635499954223633 0.9364500045776367 0.8425499796867371
O225 O 0.08259999752044678 0.15719999372959137 0.25
O226 O 0.08259999752044678 0.15719999372959137 0.75
O227 O 0.08259999752044678 0.6571999788284302 0.25
O228 O 0.08259999752044678 0.6571999788284302 0.75
O229 O 0.5825999975204468 0.15719999372959137 0.25
O230 O 0.5825999975204468 0.15719999372959137 0.75
O231 O 0.5825999975204468 0.6571999788284302 0.25
O232 O 0.5825999975204468 0.6571999788284302 0.75
O233 O 0.08259999752044678 0.25 0.15719999372959137
O234 O 0.08259999752044678 0.25 0.6571999788284302
O235 O 0.08259999752044678 0.75 0.15719999372959137
O236 O 0.08259999752044678 0.75 0.6571999788284302
O237 O 0.5825999975204468 0.25 0.15719999372959137
O238 O 0.5825999975204468 0.25 0.6571999788284302
O239 O 0.5825999975204468 0.75 0.15719999372959137
O240 O 0.5825999975204468 0.75 0.6571999788284302
O241 O 0.08259999752044678 0.25 0.34279999136924744
O242 O 0.08259999752044678 0.25 0.8428000211715698
O243 O 0.08259999752044678 0.75 0.34279999136924744
O244 O 0.08259999752044678 0.75 0.8428000211715698
O245 O 0.5825999975204468 0.25 0.34279999136924744
O246 O 0.5825999975204468 0.25 0.8428000211715698
O247 O 0.5825999975204468 0.75 0.34279999136924744
O248 O 0.5825999975204468 0.75 0.8428000211715698
O249 O 0.08259999752044678 0.34279999136924744 0.25
O250 O 0.08259999752044678 0.34279999136924744 0.75
O251 O 0.08259999752044678 0.8428000211715698 0.25
O252 O 0.08259999752044678 0.8428000211715698 0.75
O253 O 0.5825999975204468 0.34279999136924744 0.25
O254 O 0.5825999975204468 0.34279999136924744 0.75
O255 O 0.5825999975204468 0.8428000211715698 0.25
O256 O 0.5825999975204468 0.8428000211715698 0.75
O257 O 0.09255000203847885 0.18645000457763672 0.18645000457763672
O258 O 0.09255000203847885 0.18645000457763672 0.6864500045776367
O259 O 0.09255000203847885 0.6864500045776367 0.18645000457763672
O260 O 0.09255000203847885 0.6864500045776367 0.6864500045776367
O261 O 0.5925499796867371 0.18645000457763672 0.18645000457763672
O262 O 0.5925499796867371 0.18645000457763672 0.6864500045776367
O263 O 0.5925499796867371 0.6864500045776367 0.18645000457763672
O264 O 0.5925499796867371 0.6864500045776367 0.6864500045776367
O265 O 0.09255000203847885 0.18645000457763672 0.3135499954223633
O266 O 0.09255000203847885 0.18645000457763672 0.8135499954223633
O267 O 0.09255000203847885 0.6864500045776367 0.3135499954223633
O268 O 0.09255000203847885 0.6864500045776367 0.8135499954223633
O269 O 0.5925499796867371 0.18645000457763672 0.3135499954223633
O270 O 0.5925499796867371 0.18645000457763672 0.8135499954223633
O271 O 0.5925499796867371 0.6864500045776367 0.3135499954223633
O272 O 0.5925499796867371 0.6864500045776367 0.8135499954223633
O273 O 0.09255000203847885 0.3135499954223633 0.18645000457763672
O274 O 0.09255000203847885 0.3135499954223633 0.6864500045776367
O275 O 0.09255000203847885 0.8135499954223633 0.18645000457763672
O276 O 0.09255000203847885 0.8135499954223633 0.6864500045776367
O277 O 0.5925499796867371 0.3135499954223633 0.18645000457763672
O278 O 0.5925499796867371 0.3135499954223633 0.6864500045776367
O279 O 0.5925499796867371 0.8135499954223633 0.18645000457763672
O280 O 0.5925499796867371 0.8135499954223633 0.6864500045776367
O281 O 0.09255000203847885 0.3135499954223633 0.3135499954223633
O282 O 0.09255000203847885 0.3135499954223633 0.8135499954223633
O283 O 0.09255000203847885 0.8135499954223633 0.3135499954223633
O284 O 0.09255000203847885 0.8135499954223633 0.8135499954223633
O285 O 0.5925499796867371 0.3135499954223633 0.3135499954223633
O286 O 0.5925499796867371 0.3135499954223633 0.8135499954223633
O287 O 0.5925499796867371 0.8135499954223633 0.3135499954223633
O288 O 0.5925499796867371 0.8135499954223633 0.8135499954223633
O289 O 0.09279999881982803 0.0 0.16740000247955322
O290 O 0.09279999881982803 0.0 0.6674000024795532
O291 O 0.09279999881982803 0.5 0.16740000247955322
O292 O 0.09279999881982803 0.5 0.6674000024795532
O293 O 0.5928000211715698 0.0 0.16740000247955322
O294 O 0.5928000211715698 0.0 0.6674000024795532
O295 O 0.5928000211715698 0.5 0.16740000247955322
O296 O 0.5928000211715698 0.5 0.6674000024795532
O297 O 0.09279999881982803 0.0 0.3325999975204468
O298 O 0.09279999881982803 0.0 0.8325999975204468
O299 O 0.09279999881982803 0.5 0.3325999975204468
O300 O 0.09279999881982803 0.5 0.8325999975204468
O301 O 0.5928000211715698 0.0 0.3325999975204468
O302 O 0.5928000211715698 0.0 0.8325999975204468
O303 O 0.5928000211715698 0.5 0.3325999975204468
O304 O 0.5928000211715698 0.5 0.8325999975204468
O305 O 0.09279999881982803 0.16740000247955322 0.0
O306 O 0.09279999881982803 0.16740000247955322 0.5
O307 O 0.09279999881982803 0.6674000024795532 0.0
O308 O 0.09279999881982803 0.6674000024795532 0.5
O309 O 0.5928000211715698 0.16740000247955322 0.0
O310 O 0.5928000211715698 0.16740000247955322 0.5
O311 O 0.5928000211715698 0.6674000024795532 0.0
O312 O 0.5928000211715698 0.6674000024795532 0.5
O313 O 0.09279999881982803 0.3325999975204468 0.0
O314 O 0.09279999881982803 0.3325999975204468 0.5
O315 O 0.09279999881982803 0.8325999975204468 0.0
O316 O 0.09279999881982803 0.8325999975204468 0.5
O317 O 0.5928000211715698 0.3325999975204468 0.0
O318 O 0.5928000211715698 0.3325999975204468 0.5
O319 O 0.5928000211715698 0.8325999975204468 0.0
O320 O 0.5928000211715698 0.8325999975204468 0.5
O321 O 0.12240000069141388 0.045899998396635056 0.12240000069141388
O322 O 0.12240000069141388 0.045899998396635056 0.6223999857902527
O323 O 0.12240000069141388 0.5458999872207642 0.12240000069141388
O324 O 0.12240000069141388 0.5458999872207642 0.6223999857902527
O325 O 0.6223999857902527 0.045899998396635056 0.12240000069141388
O326 O 0.6223999857902527 0.045899998396635056 0.6223999857902527
O327 O 0.6223999857902527 0.5458999872207642 0.12240000069141388
O328 O 0.6223999857902527 0.5458999872207642 0.6223999857902527
O329 O 0.12240000069141388 0.045899998396635056 0.3776000142097473
O330 O 0.12240000069141388 0.045899998396635056 0.8776000142097473
O331 O 0.12240000069141388 0.5458999872207642 0.3776000142097473
O332 O 0.12240000069141388 0.5458999872207642 0.8776000142097473
O333 O 0.6223999857902527 0.045899998396635056 0.3776000142097473
O334 O 0.6223999857902527 0.045899998396635056 0.8776000142097473
O335 O 0.6223999857902527 0.5458999872207642 0.3776000142097473
O336 O 0.6223999857902527 0.5458999872207642 0.8776000142097473
O337 O 0.12240000069141388 0.12240000069141388 0.045899998396635056
O338 O 0.12240000069141388 0.12240000069141388 0.5458999872207642
O339 O 0.12240000069141388 0.6223999857902527 0.045899998396635056
O340 O 0.12240000069141388 0.6223999857902527 0.5458999872207642
O341 O 0.6223999857902527 0.12240000069141388 0.045899998396635056
O342 O 0.6223999857902527 0.12240000069141388 0.5458999872207642
O343 O 0.6223999857902527 0.6223999857902527 0.045899998396635056
O344 O 0.6223999857902527 0.6223999857902527 0.5458999872207642
O345 O 0.12240000069141388 0.12240000069141388 0.45410001277923584
O346 O 0.12240000069141388 0.12240000069141388 0.9541000127792358
O347 O 0.12240000069141388 0.6223999857902527 0.45410001277923584
O348 O 0.12240000069141388 0.6223999857902527 0.9541000127792358
O349 O 0.6223999857902527 0.12240000069141388 0.45410001277923584
O350 O 0.6223999857902527 0.12240000069141388 0.9541000127792358
O351 O 0.6223999857902527 0.6223999857902527 0.45410001277923584
O352 O 0.6223999857902527 0.6223999857902527 0.9541000127792358
O353 O 0.12240000069141388 0.3776000142097473 0.045899998396635056
O354 O 0.12240000069141388 0.3776000142097473 0.5458999872207642
O355 O 0.12240000069141388 0.8776000142097473 0.045899998396635056
O356 O 0.12240000069141388 0.8776000142097473 0.5458999872207642
O357 O 0.6223999857902527 0.3776000142097473 0.045899998396635056
O358 O 0.6223999857902527 0.3776000142097473 0.5458999872207642
O359 O 0.6223999857902527 0.8776000142097473 0.045899998396635056
O360 O 0.6223999857902527 0.8776000142097473 0.5458999872207642
O361 O 0.12240000069141388 0.3776000142097473 0.45410001277923584
O362 O 0.12240000069141388 0.3776000142097473 0.9541000127792358
O363 O 0.12240000069141388 0.8776000142097473 0.45410001277923584
O364 O 0.12240000069141388 0.8776000142097473 0.9541000127792358
O365 O 0.6223999857902527 0.3776000142097473 0.45410001277923584
O366 O 0.6223999857902527 0.3776000142097473 0.9541000127792358
O367 O 0.6223999857902527 0.8776000142097473 0.45410001277923584
O368 O 0.6223999857902527 0.8776000142097473 0.9541000127792358
O369 O 0.12240000069141388 0.45410001277923584 0.12240000069141388
O370 O 0.12240000069141388 0.45410001277923584 0.6223999857902527
O371 O 0.12240000069141388 0.9541000127792358 0.12240000069141388
O372 O 0.12240000069141388 0.9541000127792358 0.6223999857902527
O373 O 0.6223999857902527 0.45410001277923584 0.12240000069141388
O374 O 0.6223999857902527 0.45410001277923584 0.6223999857902527
O375 O 0.6223999857902527 0.9541000127792358 0.12240000069141388
O376 O 0.6223999857902527 0.9541000127792358 0.6223999857902527
O377 O 0.12240000069141388 0.45410001277923584 0.3776000142097473
O378 O 0.12240000069141388 0.45410001277923584 0.8776000142097473
O379 O 0.12240000069141388 0.9541000127792358 0.3776000142097473
O380 O 0.12240000069141388 0.9541000127792358 0.8776000142097473
O381 O 0.6223999857902527 0.45410001277923584 0.3776000142097473
O382 O 0.6223999857902527 0.45410001277923584 0.8776000142097473
O383 O 0.6223999857902527 0.9541000127792358 0.3776000142097473
O384 O 0.6223999857902527 0.9541000127792358 0.8776000142097473
O385 O 0.125 0.05790000036358833 0.19210000336170197
O386 O 0.125 0.05790000036358833 0.6920999884605408
O387 O 0.125 0.5579000115394592 0.19210000336170197
O388 O 0.125 0.5579000115394592 0.6920999884605408
O389 O 0.625 0.05790000036358833 0.19210000336170197
O390 O 0.625 0.05790000036358833 0.6920999884605408
O391 O 0.625 0.5579000115394592 0.19210000336170197
O392 O 0.625 0.5579000115394592 0.6920999884605408
O393 O 0.125 0.05790000036358833 0.30790001153945923
O394 O 0.125 0.05790000036358833 0.8079000115394592
O395 O 0.125 0.5579000115394592 0.30790001153945923
O396 O 0.125 0.5579000115394592 0.8079000115394592
O397 O 0.625 0.05790000036358833 0.30790001153945923
O398 O 0.625 0.05790000036358833 0.8079000115394592
O399 O 0.625 0.5579000115394592 0.30790001153945923
O400 O 0.625 0.5579000115394592 0.8079000115394592
O401 O 0.125 0.19210000336170197 0.05790000036358833
O402 O 0.125 0.19210000336170197 0.5579000115394592
O403 O 0.125 0.6920999884605408 0.05790000036358833
O404 O 0.125 0.6920999884605408 0.5579000115394592
O405 O 0.625 0.19210000336170197 0.05790000036358833
O406 O 0.625 0.19210000336170197 0.5579000115394592
O407 O 0.625 0.6920999884605408 0.05790000036358833
O408 O 0.625 0.6920999884605408 0.5579000115394592
O409 O 0.125 0.19210000336170197 0.44209998846054077
O410 O 0.125 0.19210000336170197 0.9420999884605408
O411 O 0.125 0.6920999884605408 0.44209998846054077
O412 O 0.125 0.6920999884605408 0.9420999884605408
O413 O 0.625 0.19210000336170197 0.44209998846054077
O414 O 0.625 0.19210000336170197 0.9420999884605408
O415 O 0.625 0.6920999884605408 0.44209998846054077
O416 O 0.625 0.6920999884605408 0.9420999884605408
O417 O 0.125 0.30790001153945923 0.05790000036358833
O418 O 0.125 0.30790001153945923 0.5579000115394592
O419 O 0.125 0.8079000115394592 0.05790000036358833
O420 O 0.125 0.8079000115394592 0.5579000115394592
O421 O 0.625 0.30790001153945923 0.05790000036358833
O422 O 0.625 0.30790001153945923 0.5579000115394592
O423 O 0.625 0.8079000115394592 0.05790000036358833
O424 O 0.625 0.8079000115394592 0.5579000115394592
O425 O 0.125 0.30790001153945923 0.44209998846054077
O426 O 0.125 0.30790001153945923 0.9420999884605408
O427 O 0.125 0.8079000115394592 0.44209998846054077
O428 O 0.125 0.8079000115394592 0.9420999884605408
O429 O 0.625 0.30790001153945923 0.44209998846054077
O430 O 0.625 0.30790001153945923 0.9420999884605408
O431 O 0.625 0.8079000115394592 0.44209998846054077
O432 O 0.625 0.8079000115394592 0.9420999884605408
O433 O 0.125 0.44209998846054077 0.19210000336170197
O434 O 0.125 0.44209998846054077 0.6920999884605408
O435 O 0.125 0.9420999884605408 0.19210000336170197
O436 O 0.125 0.9420999884605408 0.6920999884605408
O437 O 0.625 0.44209998846054077 0.19210000336170197
O438 O 0.625 0.44209998846054077 0.6920999884605408
O439 O 0.625 0.9420999884605408 0.19210000336170197
O440 O 0.625 0.9420999884605408 0.6920999884605408
O441 O 0.125 0.44209998846054077 0.30790001153945923
O442 O 0.125 0.44209998846054077 0.8079000115394592
O443 O 0.125 0.9420999884605408 0.30790001153945923
O444 O 0.125 0.9420999884605408 0.8079000115394592
O445 O 0.625 0.44209998846054077 0.30790001153945923
O446 O 0.625 0.44209998846054077 0.8079000115394592
O447 O 0.625 0.9420999884605408 0.30790001153945923
O448 O 0.625 0.9420999884605408 0.8079000115394592
O449 O 0.12759999930858612 0.12759999930858612 0.20409999787807465
O450 O 0.12759999930858612 0.12759999930858612 0.7041000127792358
O451 O 0.12759999930858612 0.6276000142097473 0.20409999787807465
O452 O 0.12759999930858612 0.6276000142097473 0.7041000127792358
O453 O 0.6276000142097473 0.12759999930858612 0.20409999787807465
O454 O 0.6276000142097473 0.12759999930858612 0.7041000127792358
O455 O 0.6276000142097473 0.6276000142097473 0.20409999787807465
O456 O 0.6276000142097473 0.6276000142097473 0.7041000127792358
O457 O 0.12759999930858612 0.12759999930858612 0.29589998722076416
O458 O 0.12759999930858612 0.12759999930858612 0.7958999872207642
O459 O 0.12759999930858612 0.6276000142097473 0.29589998722076416
O460 O 0.12759999930858612 0.6276000142097473 0.7958999872207642
O461 O 0.6276000142097473 0.12759999930858612 0.29589998722076416
O462 O 0.6276000142097473 0.12759999930858612 0.7958999872207642
O463 O 0.6276000142097473 0.6276000142097473 0.29589998722076416
O464 O 0.6276000142097473 0.6276000142097473 0.7958999872207642
O465 O 0.12759999930858612 0.20409999787807465 0.12759999930858612
O466 O 0.12759999930858612 0.20409999787807465 0.6276000142097473
O467 O 0.12759999930858612 0.7041000127792358 0.12759999930858612
O468 O 0.12759999930858612 0.7041000127792358 0.6276000142097473
O469 O 0.6276000142097473 0.20409999787807465 0.12759999930858612
O470 O 0.6276000142097473 0.20409999787807465 0.6276000142097473
O471 O 0.6276000142097473 0.7041000127792358 0.12759999930858612
O472 O 0.6276000142097473 0.7041000127792358 0.6276000142097473
O473 O 0.12759999930858612 0.20409999787807465 0.3723999857902527
O474 O 0.12759999930858612 0.20409999787807465 0.8723999857902527
O475 O 0.12759999930858612 0.7041000127792358 0.3723999857902527
O476 O 0.12759999930858612 0.7041000127792358 0.8723999857902527
O477 O 0.6276000142097473 0.20409999787807465 0.3723999857902527
O478 O 0.6276000142097473 0.20409999787807465 0.8723999857902527
O479 O 0.6276000142097473 0.7041000127792358 0.3723999857902527
O480 O 0.6276000142097473 0.7041000127792358 0.8723999857902527
O481 O 0.12759999930858612 0.29589998722076416 0.12759999930858612
O482 O 0.12759999930858612 0.29589998722076416 0.6276000142097473
O483 O 0.12759999930858612 0.7958999872207642 0.12759999930858612
O484 O 0.12759999930858612 0.7958999872207642 0.6276000142097473
O485 O 0.6276000142097473 0.29589998722076416 0.12759999930858612
O486 O 0.6276000142097473 0.29589998722076416 0.6276000142097473
O487 O 0.6276000142097473 0.7958999872207642 0.12759999930858612
O488 O 0.6276000142097473 0.7958999872207642 0.6276000142097473
O489 O 0.12759999930858612 0.29589998722076416 0.3723999857902527
O490 O 0.12759999930858612 0.29589998722076416 0.8723999857902527
O491 O 0.12759999930858612 0.7958999872207642 0.3723999857902527
O492 O 0.12759999930858612 0.7958999872207642 0.8723999857902527
O493 O 0.6276000142097473 0.29589998722076416 0.3723999857902527
O494 O 0.6276000142097473 0.29589998722076416 0.8723999857902527
O495 O 0.6276000142097473 0.7958999872207642 0.3723999857902527
O496 O 0.6276000142097473 0.7958999872207642 0.8723999857902527
O497 O 0.12759999930858612 0.3723999857902527 0.20409999787807465
O498 O 0.12759999930858612 0.3723999857902527 0.7041000127792358
O499 O 0.12759999930858612 0.8723999857902527 0.20409999787807465
O500 O 0.12759999930858612 0.8723999857902527 0.7041000127792358
O501 O 0.6276000142097473 0.3723999857902527 0.20409999787807465
O502 O 0.6276000142097473 0.3723999857902527 0.7041000127792358
O503 O 0.6276000142097473 0.8723999857902527 0.20409999787807465
O504 O 0.6276000142097473 0.8723999857902527 0.7041000127792358
O505 O 0.12759999930858612 0.3723999857902527 0.29589998722076416
O506 O 0.12759999930858612 0.3723999857902527 0.7958999872207642
O507 O 0.12759999930858612 0.8723999857902527 0.29589998722076416
O508 O 0.12759999930858612 0.8723999857902527 0.7958999872207642
O509 O 0.6276000142097473 0.3723999857902527 0.29589998722076416
O510 O 0.6276000142097473 0.3723999857902527 0.7958999872207642
O511 O 0.6276000142097473 0.8723999857902527 0.29589998722076416
O512 O 0.6276000142097473 0.8723999857902527 0.7958999872207642
O513 O 0.15719999372959137 0.08259999752044678 0.25
O514 O 0.15719999372959137 0.08259999752044678 0.75
O515 O 0.15719999372959137 0.5825999975204468 0.25
O516 O 0.15719999372959137 0.5825999975204468 0.75
O517 O 0.6571999788284302 0.08259999752044678 0.25
O518 O 0.6571999788284302 0.08259999752044678 0.75
O519 O 0.6571999788284302 0.5825999975204468 0.25
O520 O 0.6571999788284302 0.5825999975204468 0.75
O521 O 0.15719999372959137 0.25 0.08259999752044678
O522 O 0.15719999372959137 0.25 0.5825999975204468
O523 O 0.15719999372959137 0.75 0.08259999752044678
O524 O 0.15719999372959137 0.75 0.5825999975204468
O525 O 0.6571999788284302 0.25 0.08259999752044678
O526 O 0.6571999788284302 0.25 0.5825999975204468
O527 O 0.6571999788284302 0.75 0.08259999752044678
O528 O 0.6571999788284302 0.75 0.5825999975204468
O529 O 0.15719999372959137 0.25 0.4174000024795532
O530 O 0.15719999372959137 0.25 0.9174000024795532
O531 O 0.15719999372959137 0.75 0.4174000024795532
O532 O 0.15719999372959137 0.75 0.9174000024795532
O533 O 0.6571999788284302 0.25 0.4174000024795532
O534 O 0.6571999788284302 0.25 0.9174000024795532
O535 O 0.6571999788284302 0.75 0.4174000024795532
O536 O 0.6571999788284302 0.75 0.9174000024795532
O537 O 0.15719999372959137 0.4174000024795532 0.25
O538 O 0.15719999372959137 0.4174000024795532 0.75
O539 O 0.15719999372959137 0.9174000024795532 0.25
O540 O 0.15719999372959137 0.9174000024795532 0.75
O541 O 0.6571999788284302 0.4174000024795532 0.25
O542 O 0.6571999788284302 0.4174000024795532 0.75
O543 O 0.6571999788284302 0.9174000024795532 0.25
O544 O 0.6571999788284302 0.9174000024795532 0.75
O545 O 0.15745000541210175 0.06355000287294388 0.06355000287294388
O546 O 0.15745000541210175 0.06355000287294388 0.5635499954223633
O547 O 0.15745000541210175 0.5635499954223633 0.06355000287294388
O548 O 0.15745000541210175 0.5635499954223633 0.5635499954223633
O549 O 0.6574500203132629 0.06355000287294388 0.06355000287294388
O550 O 0.6574500203132629 0.06355000287294388 0.5635499954223633
O551 O 0.6574500203132629 0.5635499954223633 0.06355000287294388
O552 O 0.6574500203132629 0.5635499954223633 0.5635499954223633
O553 O 0.15745000541210175 0.06355000287294388 0.4364500045776367
O554 O 0.15745000541210175 0.06355000287294388 0.9364500045776367
O555 O 0.15745000541210175 0.5635499954223633 0.4364500045776367
O556 O 0.15745000541210175 0.5635499954223633 0.9364500045776367
O557 O 0.6574500203132629 0.06355000287294388 0.4364500045776367
O558 O 0.6574500203132629 0.06355000287294388 0.9364500045776367
O559 O 0.6574500203132629 0.5635499954223633 0.4364500045776367
O560 O 0.6574500203132629 0.5635499954223633 0.9364500045776367
O561 O 0.15745000541210175 0.4364500045776367 0.06355000287294388
O562 O 0.15745000541210175 0.4364500045776367 0.5635499954223633
O563 O 0.15745000541210175 0.9364500045776367 0.06355000287294388
O564 O 0.15745000541210175 0.9364500045776367 0.5635499954223633
O565 O 0.6574500203132629 0.4364500045776367 0.06355000287294388
O566 O 0.6574500203132629 0.4364500045776367 0.5635499954223633
O567 O 0.6574500203132629 0.9364500045776367 0.06355000287294388
O568 O 0.6574500203132629 0.9364500045776367 0.5635499954223633
O569 O 0.15745000541210175 0.4364500045776367 0.4364500045776367
O570 O 0.15745000541210175 0.4364500045776367 0.9364500045776367
O571 O 0.15745000541210175 0.9364500045776367 0.4364500045776367
O572 O 0.15745000541210175 0.9364500045776367 0.9364500045776367
O573 O 0.6574500203132629 0.4364500045776367 0.4364500045776367
O574 O 0.6574500203132629 0.4364500045776367 0.9364500045776367
O575 O 0.6574500203132629 0.9364500045776367 0.4364500045776367
O576 O 0.6574500203132629 0.9364500045776367 0.9364500045776367
O577 O 0.16740000247955322 0.0 0.09279999881982803
O578 O 0.16740000247955322 0.0 0.5928000211715698
O579 O 0.16740000247955322 0.5 0.09279999881982803
O580 O 0.16740000247955322 0.5 0.5928000211715698
O581 O 0.6674000024795532 0.0 0.09279999881982803
O582 O 0.6674000024795532 0.0 0.5928000211715698
O583 O 0.6674000024795532 0.5 0.09279999881982803
O584 O 0.6674000024795532 0.5 0.5928000211715698
O585 O 0.16740000247955322 0.0 0.40720000863075256
O586 O 0.16740000247955322 0.0 0.9071999788284302
O587 O 0.16740000247955322 0.5 0.40720000863075256
O588 O 0.16740000247955322 0.5 0.9071999788284302
O589 O 0.6674000024795532 0.0 0.40720000863075256
O590 O 0.6674000024795532 0.0 0.9071999788284302
O591 O 0.6674000024795532 0.5 0.40720000863075256
O592 O 0.6674000024795532 0.5 0.9071999788284302
O593 O 0.16740000247955322 0.09279999881982803 0.0
O594 O 0.16740000247955322 0.09279999881982803 0.5
O595 O 0.16740000247955322 0.5928000211715698 0.0
O596 O 0.16740000247955322 0.5928000211715698 0.5
O597 O 0.6674000024795532 0.09279999881982803 0.0
O598 O 0.6674000024795532 0.09279999881982803 0.5
O599 O 0.6674000024795532 0.5928000211715698 0.0
O600 O 0.6674000024795532 0.5928000211715698 0.5
O601 O 0.16740000247955322 0.40720000863075256 0.0
O602 O 0.16740000247955322 0.40720000863075256 0.5
O603 O 0.16740000247955322 0.9071999788284302 0.0
O604 O 0.16740000247955322 0.9071999788284302 0.5
O605 O 0.6674000024795532 0.40720000863075256 0.0
O606 O 0.6674000024795532 0.40720000863075256 0.5
O607 O 0.6674000024795532 0.9071999788284302 0.0
O608 O 0.6674000024795532 0.9071999788284302 0.5
O609 O 0.18645000457763672 0.09255000203847885 0.18645000457763672
O610 O 0.18645000457763672 0.09255000203847885 0.6864500045776367
O611 O 0.18645000457763672 0.5925499796867371 0.18645000457763672
O612 O 0.18645000457763672 0.5925499796867371 0.6864500045776367
O613 O 0.6864500045776367 0.09255000203847885 0.18645000457763672
O614 O 0.6864500045776367 0.09255000203847885 0.6864500045776367
O615 O 0.6864500045776367 0.5925499796867371 0.18645000457763672
O616 O 0.6864500045776367 0.5925499796867371 0.6864500045776367
O617 O 0.18645000457763672 0.09255000203847885 0.3135499954223633
O618 O 0.18645000457763672 0.09255000203847885 0.8135499954223633
O619 O 0.18645000457763672 0.5925499796867371 0.3135499954223633
O620 O 0.18645000457763672 0.5925499796867371 0.8135499954223633
O621 O 0.6864500045776367 0.09255000203847885 0.3135499954223633
O622 O 0.6864500045776367 0.09255000203847885 0.8135499954223633
O623 O 0.6864500045776367 0.5925499796867371 0.3135499954223633
O624 O 0.6864500045776367 0.5925499796867371 0.8135499954223633
O625 O 0.18645000457763672 0.18645000457763672 0.09255000203847885
O626 O 0.18645000457763672 0.18645000457763672 0.5925499796867371
O627 O 0.18645000457763672 0.6864500045776367 0.09255000203847885
O628 O 0.18645000457763672 0.6864500045776367 0.5925499796867371
O629 O 0.6864500045776367 0.18645000457763672 0.09255000203847885
O630 O 0.6864500045776367 0.18645000457763672 0.5925499796867371
O631 O 0.6864500045776367 0.6864500045776367 0.09255000203847885
O632 O 0.6864500045776367 0.6864500045776367 0.5925499796867371
O633 O 0.18645000457763672 0.18645000457763672 0.40744999051094055
O634 O 0.18645000457763672 0.18645000457763672 0.9074500203132629
O635 O 0.18645000457763672 0.6864500045776367 0.40744999051094055
O636 O 0.18645000457763672 0.6864500045776367 0.9074500203132629
O637 O 0.6864500045776367 0.18645000457763672 0.40744999051094055
O638 O 0.6864500045776367 0.18645000457763672 0.9074500203132629
O639 O 0.6864500045776367 0.6864500045776367 0.40744999051094055
O640 O 0.6864500045776367 0.6864500045776367 0.9074500203132629
O641 O 0.18645000457763672 0.3135499954223633 0.09255000203847885
O642 O 0.18645000457763672 0.3135499954223633 0.5925499796867371
O643 O 0.18645000457763672 0.8135499954223633 0.09255000203847885
O644 O 0.18645000457763672 0.8135499954223633 0.5925499796867371
O645 O 0.6864500045776367 0.3135499954223633 0.09255000203847885
O646 O 0.6864500045776367 0.3135499954223633 0.5925499796867371
O647 O 0.6864500045776367 0.8135499954223633 0.09255000203847885
O648 O 0.6864500045776367 0.8135499954223633 0.5925499796867371
O649 O 0.18645000457763672 0.3135499954223633 0.40744999051094055
O650 O 0.18645000457763672 0.3135499954223633 0.9074500203132629
O651 O 0.18645000457763672 0.8135499954223633 0.40744999051094055
O652 O 0.18645000457763672 0.8135499954223633 0.9074500203132629
O653 O 0.6864500045776367 0.3135499954223633 0.40744999051094055
O654 O 0.6864500045776367 0.3135499954223633 0.9074500203132629
O655 O 0.6864500045776367 0.8135499954223633 0.40744999051094055
O656 O 0.6864500045776367 0.8135499954223633 0.9074500203132629
O657 O 0.18645000457763672 0.40744999051094055 0.18645000457763672
O658 O 0.18645000457763672 0.40744999051094055 0.6864500045776367
O659 O 0.18645000457763672 0.9074500203132629 0.18645000457763672
O660 O 0.18645000457763672 0.9074500203132629 0.6864500045776367
O661 O 0.6864500045776367 0.40744999051094055 0.18645000457763672
O662 O 0.6864500045776367 0.40744999051094055 0.6864500045776367
O663 O 0.6864500045776367 0.9074500203132629 0.18645000457763672
O664 O 0.6864500045776367 0.9074500203132629 0.6864500045776367
O665 O 0.18645000457763672 0.40744999051094055 0.3135499954223633
O666 O 0.18645000457763672 0.40744999051094055 0.8135499954223633
O667 O 0.18645000457763672 0.9074500203132629 0.3135499954223633
O668 O 0.18645000457763672 0.9074500203132629 0.8135499954223633
O669 O 0.6864500045776367 0.40744999051094055 0.3135499954223633
O670 O 0.6864500045776367 0.40744999051094055 0.8135499954223633
O671 O 0.6864500045776367 0.9074500203132629 0.3135499954223633
O672 O 0.6864500045776367 0.9074500203132629 0.8135499954223633
O673 O 0.19210000336170197 0.05790000036358833 0.125
O674 O 0.19210000336170197 0.05790000036358833 0.625
O675 O 0.19210000336170197 0.5579000115394592 0.125
O676 O 0.19210000336170197 0.5579000115394592 0.625
O677 O 0.6920999884605408 0.05790000036358833 0.125
O678 O 0.6920999884605408 0.05790000036358833 0.625
O679 O 0.6920999884605408 0.5579000115394592 0.125
O680 O 0.6920999884605408 0.5579000115394592 0.625
O681 O 0.19210000336170197 0.05790000036358833 0.375
O682 O 0.19210000336170197 0.05790000036358833 0.875
O683 O 0.19210000336170197 0.5579000115394592 0.375
O684 O 0.19210000336170197 0.5579000115394592 0.875
O685 O 0.6920999884605408 0.05790000036358833 0.375
O686 O 0.6920999884605408 0.05790000036358833 0.875
O687 O 0.6920999884605408 0.5579000115394592 0.375
O688 O 0.6920999884605408 0.5579000115394592 0.875
O689 O 0.19210000336170197 0.125 0.05790000036358833
O690 O 0.19210000336170197 0.125 0.5579000115394592
O691 O 0.19210000336170197 0.625 0.05790000036358833
O692 O 0.19210000336170197 0.625 0.5579000115394592
O693 O 0.6920999884605408 0.125 0.05790000036358833
O694 O 0.6920999884605408 0.125 0.5579000115394592
O695 O 0.6920999884605408 0.625 0.05790000036358833
O696 O 0.6920999884605408 0.625 0.5579000115394592
O697 O 0.19210000336170197 0.125 0.44209998846054077
O698 O 0.19210000336170197 0.125 0.9420999884605408
O699 O 0.19210000336170197 0.625 0.44209998846054077
O700 O 0.19210000336170197 0.625 0.9420999884605408
O701 O 0.6920999884605408 0.125 0.44209998846054077
O702 O 0.6920999884605408 0.125 0.9420999884605408
O703 O 0.6920999884605408 0.625 0.44209998846054077
O704 O 0.6920999884605408 0.625 0.9420999884605408
O705 O 0.19210000336170197 0.375 0.05790000036358833
O706 O 0.19210000336170197 0.375 0.5579000115394592
O707 O 0.19210000336170197 0.875 0.05790000036358833
O708 O 0.19210000336170197 0.875 0.5579000115394592
O709 O 0.6920999884605408 0.375 0.05790000036358833
O710 O 0.6920999884605408 0.375 0.5579000115394592
O711 O 0.6920999884605408 0.875 0.05790000036358833
O712 O 0.6920999884605408 0.875 0.5579000115394592
O713 O 0.19210000336170197 0.375 0.44209998846054077
O714 O 0.19210000336170197 0.375 0.9420999884605408
O715 O 0.19210000336170197 0.875 0.44209998846054077
O716 O 0.19210000336170197 0.875 0.9420999884605408
O717 O 0.6920999884605408 0.375 0.44209998846054077
O718 O 0.6920999884605408 0.375 0.9420999884605408
O719 O 0.6920999884605408 0.875 0.44209998846054077
O720 O 0.6920999884605408 0.875 0.9420999884605408
O721 O 0.19210000336170197 0.44209998846054077 0.125
O722 O 0.19210000336170197 0.44209998846054077 0.625
O723 O 0.19210000336170197 0.9420999884605408 0.125
O724 O 0.19210000336170197 0.9420999884605408 0.625
O725 O 0.6920999884605408 0.44209998846054077 0.125
O726 O 0.6920999884605408 0.44209998846054077 0.625
O727 O 0.6920999884605408 0.9420999884605408 0.125
O728 O 0.6920999884605408 0.9420999884605408 0.625
O729 O 0.19210000336170197 0.44209998846054077 0.375
O730 O 0.19210000336170197 0.44209998846054077 0.875
O731 O 0.19210000336170197 0.9420999884605408 0.375
O732 O 0.19210000336170197 0.9420999884605408 0.875
O733 O 0.6920999884605408 0.44209998846054077 0.375
O734 O 0.6920999884605408 0.44209998846054077 0.875
O735 O 0.6920999884605408 0.9420999884605408 0.375
O736 O 0.6920999884605408 0.9420999884605408 0.875
O737 O 0.20409999787807465 0.12759999930858612 0.12759999930858612
O738 O 0.20409999787807465 0.12759999930858612 0.6276000142097473
O739 O 0.20409999787807465 0.6276000142097473 0.12759999930858612
O740 O 0.20409999787807465 0.6276000142097473 0.6276000142097473
O741 O 0.7041000127792358 0.12759999930858612 0.12759999930858612
O742 O 0.7041000127792358 0.12759999930858612 0.6276000142097473
O743 O 0.7041000127792358 0.6276000142097473 0.12759999930858612
O744 O 0.7041000127792358 0.6276000142097473 0.6276000142097473
O745 O 0.20409999787807465 0.12759999930858612 0.3723999857902527
O746 O 0.20409999787807465 0.12759999930858612 0.8723999857902527
O747 O 0.20409999787807465 0.6276000142097473 0.3723999857902527
O748 O 0.20409999787807465 0.6276000142097473 0.8723999857902527
O749 O 0.7041000127792358 0.12759999930858612 0.3723999857902527
O750 O 0.7041000127792358 0.12759999930858612 0.8723999857902527
O751 O 0.7041000127792358 0.6276000142097473 0.3723999857902527
O752 O 0.7041000127792358 0.6276000142097473 0.8723999857902527
O753 O 0.20409999787807465 0.3723999857902527 0.12759999930858612
O754 O 0.20409999787807465 0.3723999857902527 0.6276000142097473
O755 O 0.20409999787807465 0.8723999857902527 0.12759999930858612
O756 O 0.20409999787807465 0.8723999857902527 0.6276000142097473
O757 O 0.7041000127792358 0.3723999857902527 0.12759999930858612
O758 O 0.7041000127792358 0.3723999857902527 0.6276000142097473
O759 O 0.7041000127792358 0.8723999857902527 0.12759999930858612
O760 O 0.7041000127792358 0.8723999857902527 0.6276000142097473
O761 O 0.20409999787807465 0.3723999857902527 0.3723999857902527
O762 O 0.20409999787807465 0.3723999857902527 0.8723999857902527
O763 O 0.20409999787807465 0.8723999857902527 0.3723999857902527
O764 O 0.20409999787807465 0.8723999857902527 0.8723999857902527
O765 O 0.7041000127792358 0.3723999857902527 0.3723999857902527
O766 O 0.7041000127792358 0.3723999857902527 0.8723999857902527
O767 O 0.7041000127792358 0.8723999857902527 0.3723999857902527
O768 O 0.7041000127792358 0.8723999857902527 0.8723999857902527
O769 O 0.25 0.08259999752044678 0.15719999372959137
O770 O 0.25 0.08259999752044678 0.6571999788284302
O771 O 0.25 0.5825999975204468 0.15719999372959137
O772 O 0.25 0.5825999975204468 0.6571999788284302
O773 O 0.75 0.08259999752044678 0.15719999372959137
O774 O 0.75 0.08259999752044678 0.6571999788284302
O775 O 0.75 0.5825999975204468 0.15719999372959137
O776 O 0.75 0.5825999975204468 0.6571999788284302
O777 O 0.25 0.08259999752044678 0.34279999136924744
O778 O 0.25 0.08259999752044678 0.8428000211715698
O779 O 0.25 0.5825999975204468 0.34279999136924744
O780 O 0.25 0.5825999975204468 0.8428000211715698
O781 O 0.75 0.08259999752044678 0.34279999136924744
O782 O 0.75 0.08259999752044678 0.8428000211715698
O783 O 0.75 0.5825999975204468 0.34279999136924744
O784 O 0.75 0.5825999975204468 0.8428000211715698
O785 O 0.25 0.15719999372959137 0.08259999752044678
O786 O 0.25 0.15719999372959137 0.5825999975204468
O787 O 0.25 0.6571999788284302 0.08259999752044678
O788 O 0.25 0.6571999788284302 0.5825999975204468
O789 O 0.75 0.15719999372959137 0.08259999752044678
O790 O 0.75 0.15719999372959137 0.5825999975204468
O791 O 0.75 0.6571999788284302 0.08259999752044678
O792 O 0.75 0.6571999788284302 0.5825999975204468
O793 O 0.25 0.15719999372959137 0.4174000024795532
O794 O 0.25 0.15719999372959137 0.9174000024795532
O795 O 0.25 0.6571999788284302 0.4174000024795532
O796 O 0.25 0.6571999788284302 0.9174000024795532
O797 O 0.75 0.15719999372959137 0.4174000024795532
O798 O 0.75 0.15719999372959137 0.9174000024795532
O799 O 0.75 0.6571999788284302 0.4174000024795532
O800 O 0.75 0.6571999788284302 0.9174000024795532
O801 O 0.25 0.34279999136924744 0.08259999752044678
O802 O 0.25 0.34279999136924744 0.5825999975204468
O803 O 0.25 0.8428000211715698 0.08259999752044678
O804 O 0.25 0.8428000211715698 0.5825999975204468
O805 O 0.75 0.34279999136924744 0.08259999752044678
O806 O 0.75 0.34279999136924744 0.5825999975204468
O807 O 0.75 0.8428000211715698 0.08259999752044678
O808 O 0.75 0.8428000211715698 0.5825999975204468
O809 O 0.25 0.34279999136924744 0.4174000024795532
O810 O 0.25 0.34279999136924744 0.9174000024795532
O811 O 0.25 0.8428000211715698 0.4174000024795532
O812 O 0.25 0.8428000211715698 0.9174000024795532
O813 O 0.75 0.34279999136924744 0.4174000024795532
O814 O 0.75 0.34279999136924744 0.9174000024795532
O815 O 0.75 0.8428000211715698 0.4174000024795532
O816 O 0.75 0.8428000211715698 0.9174000024795532
O817 O 0.25 0.4174000024795532 0.15719999372959137
O818 O 0.25 0.4174000024795532 0.6571999788284302
O819 O 0.25 0.9174000024795532 0.15719999372959137
O820 O 0.25 0.9174000024795532 0.6571999788284302
O821 O 0.75 0.4174000024795532 0.15719999372959137
O822 O 0.75 0.4174000024795532 0.6571999788284302
O823 O 0.75 0.9174000024795532 0.15719999372959137
O824 O 0.75 0.9174000024795532 0.6571999788284302
O825 O 0.25 0.4174000024795532 0.34279999136924744
O826 O 0.25 0.4174000024795532 0.8428000211715698
O827 O 0.25 0.9174000024795532 0.34279999136924744
O828 O 0.25 0.9174000024795532 0.8428000211715698
O829 O 0.75 0.4174000024795532 0.34279999136924744
O830 O 0.75 0.4174000024795532 0.8428000211715698
O831 O 0.75 0.9174000024795532 0.34279999136924744
O832 O 0.75 0.9174000024795532 0.8428000211715698
O833 O 0.29589998722076416 0.12759999930858612 0.12759999930858612
O834 O 0.29589998722076416 0.12759999930858612 0.6276000142097473
O835 O 0.29589998722076416 0.6276000142097473 0.12759999930858612
O836 O 0.29589998722076416 0.6276000142097473 0.6276000142097473
O837 O 0.7958999872207642 0.12759999930858612 0.12759999930858612
O838 O 0.7958999872207642 0.12759999930858612 0.6276000142097473
O839 O 0.7958999872207642 0.6276000142097473 0.12759999930858612
O840 O 0.7958999872207642 0.6276000142097473 0.6276000142097473
O841 O 0.29589998722076416 0.12759999930858612 0.3723999857902527
O842 O 0.29589998722076416 0.12759999930858612 0.8723999857902527
O843 O 0.29589998722076416 0.6276000142097473 0.3723999857902527
O844 O 0.29589998722076416 0.6276000142097473 0.8723999857902527
O845 O 0.7958999872207642 0.12759999930858612 0.3723999857902527
O846 O 0.7958999872207642 0.12759999930858612 0.8723999857902527
O847 O 0.7958999872207642 0.6276000142097473 0.3723999857902527
O848 O 0.7958999872207642 0.6276000142097473 0.8723999857902527
O849 O 0.29589998722076416 0.3723999857902527 0.12759999930858612
O850 O 0.29589998722076416 0.3723999857902527 0.6276000142097473
O851 O 0.29589998722076416 0.8723999857902527 0.12759999930858612
O852 O 0.29589998722076416 0.8723999857902527 0.6276000142097473
O853 O 0.7958999872207642 0.3723999857902527 0.12759999930858612
O854 O 0.7958999872207642 0.3723999857902527 0.6276000142097473
O855 O 0.7958999872207642 0.8723999857902527 0.12759999930858612
O856 O 0.7958999872207642 0.8723999857902527 0.6276000142097473
O857 O 0.29589998722076416 0.3723999857902527 0.3723999857902527
O858 O 0.29589998722076416 0.3723999857902527 0.8723999857902527
O859 O 0.29589998722076416 0.8723999857902527 0.3723999857902527
O860 O 0.29589998722076416 0.8723999857902527 0.8723999857902527
O861 O 0.7958999872207642 0.3723999857902527 0.3723999857902527
O862 O 0.7958999872207642 0.3723999857902527 0.8723999857902527
O863 O 0.7958999872207642 0.8723999857902527 0.3723999857902527
O864 O 0.7958999872207642 0.8723999857902527 0.8723999857902527
O865 O 0.30790001153945923 0.05790000036358833 0.125
O866 O 0.30790001153945923 0.05790000036358833 0.625
O867 O 0.30790001153945923 0.5579000115394592 0.125
O868 O 0.30790001153945923 0.5579000115394592 0.625
O869 O 0.8079000115394592 0.05790000036358833 0.125
O870 O 0.8079000115394592 0.05790000036358833 0.625
O871 O 0.8079000115394592 0.5579000115394592 0.125
O872 O 0.8079000115394592 0.5579000115394592 0.625
O873 O 0.30790001153945923 0.05790000036358833 0.375
O874 O 0.30790001153945923 0.05790000036358833 0.875
O875 O 0.30790001153945923 0.5579000115394592 0.375
O876 O 0.30790001153945923 0.5579000115394592 0.875
O877 O 0.8079000115394592 0.05790000036358833 0.375
O878 O 0.8079000115394592 0.05790000036358833 0.875
O879 O 0.8079000115394592 0.5579000115394592 0.375
O880 O 0.8079000115394592 0.5579000115394592 0.875
O881 O 0.30790001153945923 0.125 0.05790000036358833
O882 O 0.30790001153945923 0.125 0.5579000115394592
O883 O 0.30790001153945923 0.625 0.05790000036358833
O884 O 0.30790001153945923 0.625 0.5579000115394592
O885 O 0.8079000115394592 0.125 0.05790000036358833
O886 O 0.8079000115394592 0.125 0.5579000115394592
O887 O 0.8079000115394592 0.625 0.05790000036358833
O888 O 0.8079000115394592 0.625 0.5579000115394592
O889 O 0.30790001153945923 0.125 0.44209998846054077
O890 O 0.30790001153945923 0.125 0.9420999884605408
O891 O 0.30790001153945923 0.625 0.44209998846054077
O892 O 0.30790001153945923 0.625 0.9420999884605408
O893 O 0.8079000115394592 0.125 0.44209998846054077
O894 O 0.8079000115394592 0.125 0.9420999884605408
O895 O 0.8079000115394592 0.625 0.44209998846054077
O896 O 0.8079000115394592 0.625 0.9420999884605408
O897 O 0.30790001153945923 0.375 0.05790000036358833
O898 O 0.30790001153945923 0.375 0.5579000115394592
O899 O 0.30790001153945923 0.875 0.05790000036358833
O900 O 0.30790001153945923 0.875 0.5579000115394592
O901 O 0.8079000115394592 0.375 0.05790000036358833
O902 O 0.8079000115394592 0.375 0.5579000115394592
O903 O 0.8079000115394592 0.875 0.05790000036358833
O904 O 0.8079000115394592 0.875 0.5579000115394592
O905 O 0.30790001153945923 0.375 0.44209998846054077
O906 O 0.30790001153945923 0.375 0.9420999884605408
O907 O 0.30790001153945923 0.875 0.44209998846054077
O908 O 0.30790001153945923 0.875 0.9420999884605408
O909 O 0.8079000115394592 0.375 0.44209998846054077
O910 O 0.8079000115394592 0.375 0.9420999884605408
O911 O 0.8079000115394592 0.875 0.44209998846054077
O912 O 0.8079000115394592 0.875 0.9420999884605408
O913 O 0.30790001153945923 0.44209998846054077 0.125
O914 O 0.30790001153945923 0.44209998846054077 0.625
O915 O 0.30790001153945923 0.9420999884605408 0.125
O916 O 0.30790001153945923 0.9420999884605408 0.625
O917 O 0.8079000115394592 0.44209998846054077 0.125
O918 O 0.8079000115394592 0.44209998846054077 0.625
O919 O 0.8079000115394592 0.9420999884605408 0.125
O920 O 0.8079000115394592 0.9420999884605408 0.625
O921 O 0.30790001153945923 0.44209998846054077 0.375
O922 O 0.30790001153945923 0.44209998846054077 0.875
O923 O 0.30790001153945923 0.9420999884605408 0.375
O924 O 0.30790001153945923 0.9420999884605408 0.875
O925 O 0.8079000115394592 0.44209998846054077 0.375
O926 O 0.8079000115394592 0.44209998846054077 0.875
O927 O 0.8079000115394592 0.9420999884605408 0.375
O928 O 0.8079000115394592 0.9420999884605408 0.875
O929 O 0.3135499954223633 0.09255000203847885 0.18645000457763672
O930 O 0.3135499954223633 0.09255000203847885 0.6864500045776367
O931 O 0.3135499954223633 0.5925499796867371 0.18645000457763672
O932 O 0.3135499954223633 0.5925499796867371 0.6864500045776367
O933 O 0.8135499954223633 0.09255000203847885 0.18645000457763672
O934 O 0.8135499954223633 0.09255000203847885 0.6864500045776367
O935 O 0.8135499954223633 0.5925499796867371 0.18645000457763672
O936 O 0.8135499954223633 0.5925499796867371 0.6864500045776367
O937 O 0.3135499954223633 0.09255000203847885 0.3135499954223633
O938 O 0.3135499954223633 0.09255000203847885 0.8135499954223633
O939 O 0.3135499954223633 0.5925499796867371 0.3135499954223633
O940 O 0.3135499954223633 0.5925499796867371 0.8135499954223633
O941 O 0.8135499954223633 0.09255000203847885 0.3135499954223633
O942 O 0.8135499954223633 0.09255000203847885 0.8135499954223633
O943 O 0.8135499954223633 0.5925499796867371 0.3135499954223633
O944 O 0.8135499954223633 0.5925499796867371 0.8135499954223633
O945 O 0.3135499954223633 0.18645000457763672 0.09255000203847885
O946 O 0.3135499954223633 0.18645000457763672 0.5925499796867371
O947 O 0.3135499954223633 0.6864500045776367 0.09255000203847885
O948 O 0.3135499954223633 0.6864500045776367 0.5925499796867371
O949 O 0.8135499954223633 0.18645000457763672 0.09255000203847885
O950 O 0.8135499954223633 0.18645000457763672 0.5925499796867371
O951 O 0.8135499954223633 0.6864500045776367 0.09255000203847885
O952 O 0.8135499954223633 0.6864500045776367 0.5925499796867371
O953 O 0.3135499954223633 0.18645000457763672 0.40744999051094055
O954 O 0.3135499954223633 0.18645000457763672 0.9074500203132629
O955 O 0.3135499954223633 0.6864500045776367 0.40744999051094055
O956 O 0.3135499954223633 0.6864500045776367 0.9074500203132629
O957 O 0.8135499954223633 0.18645000457763672 0.40744999051094055
O958 O 0.8135499954223633 0.18645000457763672 0.9074500203132629
O959 O 0.8135499954223633 0.6864500045776367 0.40744999051094055
O960 O 0.8135499954223633 0.6864500045776367 0.9074500203132629
O961 O 0.3135499954223633 0.3135499954223633 0.09255000203847885
O962 O 0.3135499954223633 0.3135499954223633 0.5925499796867371
O963 O 0.3135499954223633 0.8135499954223633 0.09255000203847885
O964 O 0.3135499954223633 0.8135499954223633 0.5925499796867371
O965 O 0.8135499954223633 0.3135499954223633 0.09255000203847885
O966 O 0.8135499954223633 0.3135499954223633 0.5925499796867371
O967 O 0.8135499954223633 0.8135499954223633 0.09255000203847885
O968 O 0.8135499954223633 0.8135499954223633 0.5925499796867371
O969 O 0.3135499954223633 0.3135499954223633 0.40744999051094055
O970 O 0.3135499954223633 0.3135499954223633 0.9074500203132629
O971 O 0.3135499954223633 0.8135499954223633 0.40744999051094055
O972 O 0.3135499954223633 0.8135499954223633 0.9074500203132629
O973 O 0.8135499954223633 0.3135499954223633 0.40744999051094055
O974 O 0.8135499954223633 0.3135499954223633 0.9074500203132629
O975 O 0.8135499954223633 0.8135499954223633 0.40744999051094055
O976 O 0.8135499954223633 0.8135499954223633 0.9074500203132629
O977 O 0.3135499954223633 0.40744999051094055 0.18645000457763672
O978 O 0.3135499954223633 0.40744999051094055 0.6864500045776367
O979 O 0.3135499954223633 0.9074500203132629 0.18645000457763672
O980 O 0.3135499954223633 0.9074500203132629 0.6864500045776367
O981 O 0.8135499954223633 0.40744999051094055 0.18645000457763672
O982 O 0.8135499954223633 0.40744999051094055 0.6864500045776367
O983 O 0.8135499954223633 0.9074500203132629 0.18645000457763672
O984 O 0.8135499954223633 0.9074500203132629 0.6864500045776367
O985 O 0.3135499954223633 0.40744999051094055 0.3135499954223633
O986 O 0.3135499954223633 0.40744999051094055 0.8135499954223633
O987 O 0.3135499954223633 0.9074500203132629 0.3135499954223633
O988 O 0.3135499954223633 0.9074500203132629 0.8135499954223633
O989 O 0.8135499954223633 0.40744999051094055 0.3135499954223633
O990 O 0.8135499954223633 0.40744999051094055 0.8135499954223633
O991 O 0.8135499954223633 0.9074500203132629 0.3135499954223633
O992 O 0.8135499954223633 0.9074500203132629 0.8135499954223633
O993 O 0.3325999975204468 0.0 0.09279999881982803
O994 O 0.3325999975204468 0.0 0.5928000211715698
O995 O 0.3325999975204468 0.5 0.09279999881982803
O996 O 0.3325999975204468 0.5 0.5928000211715698
O997 O 0.8325999975204468 0.0 0.09279999881982803
O998 O 0.8325999975204468 0.0 0.5928000211715698
O999 O 0.8325999975204468 0.5 0.09279999881982803
O1000 O 0.8325999975204468 0.5 0.5928000211715698
O1001 O 0.3325999975204468 0.0 0.40720000863075256
O1002 O 0.3325999975204468 0.0 0.9071999788284302
O1003 O 0.3325999975204468 0.5 0.40720000863075256
O1004 O 0.3325999975204468 0.5 0.9071999788284302
O1005 O 0.8325999975204468 0.0 0.40720000863075256
O1006 O 0.8325999975204468 0.0 0.9071999788284302
O1007 O 0.8325999975204468 0.5 0.40720000863075256
O1008 O 0.8325999975204468 0.5 0.9071999788284302
O1009 O 0.3325999975204468 0.09279999881982803 0.0
O1010 O 0.3325999975204468 0.09279999881982803 0.5
O1011 O 0.3325999975204468 0.5928000211715698 0.0
O1012 O 0.3325999975204468 0.5928000211715698 0.5
O1013 O 0.8325999975204468 0.09279999881982803 0.0
O1014 O 0.8325999975204468 0.09279999881982803 0.5
O1015 O 0.8325999975204468 0.5928000211715698 0.0
O1016 O 0.8325999975204468 0.5928000211715698 0.5
O1017 O 0.3325999975204468 0.40720000863075256 0.0
O1018 O 0.3325999975204468 0.40720000863075256 0.5
O1019 O 0.3325999975204468 0.9071999788284302 0.0
O1020 O 0.3325999975204468 0.9071999788284302 0.5
O1021 O 0.8325999975204468 0.40720000863075256 0.0
O1022 O 0.8325999975204468 0.40720000863075256 0.5
O1023 O 0.8325999975204468 0.9071999788284302 0.0
O1024 O 0.8325999975204468 0.9071999788284302 0.5
O1025 O 0.34255000948905945 0.06355000287294388 0.06355000287294388
O1026 O 0.34255000948905945 0.06355000287294388 0.5635499954223633
O1027 O 0.34255000948905945 0.5635499954223633 0.06355000287294388
O1028 O 0.34255000948905945 0.5635499954223633 0.5635499954223633
O1029 O 0.8425499796867371 0.06355000287294388 0.06355000287294388
O1030 O 0.8425499796867371 0.06355000287294388 0.5635499954223633
O1031 O 0.8425499796867371 0.5635499954223633 0.06355000287294388
O1032 O 0.8425499796867371 0.5635499954223633 0.5635499954223633
O1033 O 0.34255000948905945 0.06355000287294388 0.4364500045776367
O1034 O 0.34255000948905945 0.06355000287294388 0.9364500045776367
O1035 O 0.34255000948905945 0.5635499954223633 0.4364500045776367
O1036 O 0.34255000948905945 0.5635499954223633 0.9364500045776367
O1037 O 0.8425499796867371 0.06355000287294388 0.4364500045776367
O1038 O 0.8425499796867371 0.06355000287294388 0.9364500045776367
O1039 O 0.8425499796867371 0.5635499954223633 0.4364500045776367
O1040 O 0.8425499796867371 0.5635499954223633 0.9364500045776367
O1041 O 0.34255000948905945 0.4364500045776367 0.06355000287294388
O1042 O 0.34255000948905945 0.4364500045776367 0.5635499954223633
O1043 O 0.34255000948905945 0.9364500045776367 0.06355000287294388
O1044 O 0.34255000948905945 0.9364500045776367 0.5635499954223633
O1045 O 0.8425499796867371 0.4364500045776367 0.06355000287294388
O1046 O 0.8425499796867371 0.4364500045776367 0.5635499954223633
O1047 O 0.8425499796867371 0.9364500045776367 0.06355000287294388
O1048 O 0.8425499796867371 0.9364500045776367 0.5635499954223633
O1049 O 0.34255000948905945 0.4364500045776367 0.4364500045776367
O1050 O 0.34255000948905945 0.4364500045776367 0.9364500045776367
O1051 O 0.34255000948905945 0.9364500045776367 0.4364500045776367
O1052 O 0.34255000948905945 0.9364500045776367 0.9364500045776367
O1053 O 0.8425499796867371 0.4364500045776367 0.4364500045776367
O1054 O 0.8425499796867371 0.4364500045776367 0.9364500045776367
O1055 O 0.8425499796867371 0.9364500045776367 0.4364500045776367
O1056 O 0.8425499796867371 0.9364500045776367 0.9364500045776367
O1057 O 0.34279999136924744 0.08259999752044678 0.25
O1058 O 0.34279999136924744 0.08259999752044678 0.75
O1059 O 0.34279999136924744 0.5825999975204468 0.25
O1060 O 0.34279999136924744 0.5825999975204468 0.75
O1061 O 0.8428000211715698 0.08259999752044678 0.25
O1062 O 0.8428000211715698 0.08259999752044678 0.75
O1063 O 0.8428000211715698 0.5825999975204468 0.25
O1064 O 0.8428000211715698 0.5825999975204468 0.75
O1065 O 0.34279999136924744 0.25 0.08259999752044678
O1066 O 0.34279999136924744 0.25 0.5825999975204468
O1067 O 0.34279999136924744 0.75 0.08259999752044678
O1068 O 0.34279999136924744 0.75 0.5825999975204468
O1069 O 0.8428000211715698 0.25 0.08259999752044678
O1070 O 0.8428000211715698 0.25 0.5825999975204468
O1071 O 0.8428000211715698 0.75 0.08259999752044678
O1072 O 0.8428000211715698 0.75 0.5825999975204468
O1073 O 0.34279999136924744 0.25 0.4174000024795532
O1074 O 0.34279999136924744 0.25 0.9174000024795532
O1075 O 0.34279999136924744 0.75 0.4174000024795532
O1076 O 0.34279999136924744 0.75 0.9174000024795532
O1077 O 0.8428000211715698 0.25 0.4174000024795532
O1078 O 0.8428000211715698 0.25 0.9174000024795532
O1079 O 0.8428000211715698 0.75 0.4174000024795532
O1080 O 0.8428000211715698 0.75 0.9174000024795532
O1081 O 0.34279999136924744 0.4174000024795532 0.25
O1082 O 0.34279999136924744 0.4174000024795532 0.75
O1083 O 0.34279999136924744 0.9174000024795532 0.25
O1084 O 0.34279999136924744 0.9174000024795532 0.75
O1085 O 0.8428000211715698 0.4174000024795532 0.25
O1086 O 0.8428000211715698 0.4174000024795532 0.75
O1087 O 0.8428000211715698 0.9174000024795532 0.25
O1088 O 0.8428000211715698 0.9174000024795532 0.75
O1089 O 0.3723999857902527 0.12759999930858612 0.20409999787807465
O1090 O 0.3723999857902527 0.12759999930858612 0.7041000127792358
O1091 O 0.3723999857902527 0.6276000142097473 0.20409999787807465
O1092 O 0.3723999857902527 0.6276000142097473 0.7041000127792358
O1093 O 0.8723999857902527 0.12759999930858612 0.20409999787807465
O1094 O 0.8723999857902527 0.12759999930858612 0.7041000127792358
O1095 O 0.8723999857902527 0.6276000142097473 0.20409999787807465
O1096 O 0.8723999857902527 0.6276000142097473 0.7041000127792358
O1097 O 0.3723999857902527 0.12759999930858612 0.29589998722076416
O1098 O 0.3723999857902527 0.12759999930858612 0.7958999872207642
O1099 O 0.3723999857902527 0.6276000142097473 0.29589998722076416
O1100 O 0.3723999857902527 0.6276000142097473 0.7958999872207642
O1101 O 0.8723999857902527 0.12759999930858612 0.29589998722076416
O1102 O 0.8723999857902527 0.12759999930858612 0.7958999872207642
O1103 O 0.8723999857902527 0.6276000142097473 0.29589998722076416
O1104 O 0.8723999857902527 0.6276000142097473 0.7958999872207642
O1105 O 0.3723999857902527 0.20409999787807465 0.12759999930858612
O1106 O 0.3723999857902527 0.20409999787807465 0.6276000142097473
O1107 O 0.3723999857902527 0.7041000127792358 0.12759999930858612
O1108 O 0.3723999857902527 0.7041000127792358 0.6276000142097473
O1109 O 0.8723999857902527 0.20409999787807465 0.12759999930858612
O1110 O 0.8723999857902527 0.20409999787807465 0.6276000142097473
O1111 O 0.8723999857902527 0.7041000127792358 0.12759999930858612
O1112 O 0.8723999857902527 0.7041000127792358 0.6276000142097473
O1113 O 0.3723999857902527 0.20409999787807465 0.3723999857902527
O1114 O 0.3723999857902527 0.20409999787807465 0.8723999857902527
O1115 O 0.3723999857902527 0.7041000127792358 0.3723999857902527
O1116 O 0.3723999857902527 0.7041000127792358 0.8723999857902527
O1117 O 0.8723999857902527 0.20409999787807465 0.3723999857902527
O1118 O 0.8723999857902527 0.20409999787807465 0.8723999857902527
O1119 O 0.8723999857902527 0.7041000127792358 0.3723999857902527
O1120 O 0.8723999857902527 0.7041000127792358 0.8723999857902527
O1121 O 0.3723999857902527 0.29589998722076416 0.12759999930858612
O1122 O 0.3723999857902527 0.29589998722076416 0.6276000142097473
O1123 O 0.3723999857902527 0.7958999872207642 0.12759999930858612
O1124 O 0.3723999857902527 0.7958999872207642 0.6276000142097473
O1125 O 0.8723999857902527 0.29589998722076416 0.12759999930858612
O1126 O 0.8723999857902527 0.29589998722076416 0.6276000142097473
O1127 O 0.8723999857902527 0.7958999872207642 0.12759999930858612
O1128 O 0.8723999857902527 0.7958999872207642 0.6276000142097473
O1129 O 0.3723999857902527 0.29589998722076416 0.3723999857902527
O1130 O 0.3723999857902527 0.29589998722076416 0.8723999857902527
O1131 O 0.3723999857902527 0.7958999872207642 0.3723999857902527
O1132 O 0.3723999857902527 0.7958999872207642 0.8723999857902527
O1133 O 0.8723999857902527 0.29589998722076416 0.3723999857902527
O1134 O 0.8723999857902527 0.29589998722076416 0.8723999857902527
O1135 O 0.8723999857902527 0.7958999872207642 0.3723999857902527
O1136 O 0.8723999857902527 0.7958999872207642 0.8723999857902527
O1137 O 0.3723999857902527 0.3723999857902527 0.20409999787807465
O1138 O 0.3723999857902527 0.3723999857902527 0.7041000127792358
O1139 O 0.3723999857902527 0.8723999857902527 0.20409999787807465
O1140 O 0.3723999857902527 0.8723999857902527 0.7041000127792358
O1141 O 0.8723999857902527 0.3723999857902527 0.20409999787807465
O1142 O 0.8723999857902527 0.3723999857902527 0.7041000127792358
O1143 O 0.8723999857902527 0.8723999857902527 0.20409999787807465
O1144 O 0.8723999857902527 0.8723999857902527 0.7041000127792358
O1145 O 0.3723999857902527 0.3723999857902527 0.29589998722076416
O1146 O 0.3723999857902527 0.3723999857902527 0.7958999872207642
O1147 O 0.3723999857902527 0.8723999857902527 0.29589998722076416
O1148 O 0.3723999857902527 0.8723999857902527 0.7958999872207642
O1149 O 0.8723999857902527 0.3723999857902527 0.29589998722076416
O1150 O 0.8723999857902527 0.3723999857902527 0.7958999872207642
O1151 O 0.8723999857902527 0.8723999857902527 0.29589998722076416
O1152 O 0.8723999857902527 0.8723999857902527 0.7958999872207642
O1153 O 0.375 0.05790000036358833 0.19210000336170197
O1154 O 0.375 0.05790000036358833 0.6920999884605408
O1155 O 0.375 0.5579000115394592 0.19210000336170197
O1156 O 0.375 0.5579000115394592 0.6920999884605408
O1157 O 0.875 0.05790000036358833 0.19210000336170197
O1158 O 0.875 0.05790000036358833 0.6920999884605408
O1159 O 0.875 0.5579000115394592 0.19210000336170197
O1160 O 0.875 0.5579000115394592 0.6920999884605408
O1161 O 0.375 0.05790000036358833 0.30790001153945923
O1162 O 0.375 0.05790000036358833 0.8079000115394592
O1163 O 0.375 0.5579000115394592 0.30790001153945923
O1164 O 0.375 0.5579000115394592 0.8079000115394592
O1165 O 0.875 0.05790000036358833 0.30790001153945923
O1166 O 0.875 0.05790000036358833 0.8079000115394592
O1167 O 0.875 0.5579000115394592 0.30790001153945923
O1168 O 0.875 0.5579000115394592 0.8079000115394592
O1169 O 0.375 0.19210000336170197 0.05790000036358833
O1170 O 0.375 0.19210000336170197 0.5579000115394592
O1171 O 0.375 0.6920999884605408 0.05790000036358833
O1172 O 0.375 0.6920999884605408 0.5579000115394592
O1173 O 0.875 0.19210000336170197 0.05790000036358833
O1174 O 0.875 0.19210000336170197 0.5579000115394592
O1175 O 0.875 0.6920999884605408 0.05790000036358833
O1176 O 0.875 0.6920999884605408 0.5579000115394592
O1177 O 0.375 0.19210000336170197 0.44209998846054077
O1178 O 0.375 0.19210000336170197 0.9420999884605408
O1179 O 0.375 0.6920999884605408 0.44209998846054077
O1180 O 0.375 0.6920999884605408 0.9420999884605408
O1181 O 0.875 0.19210000336170197 0.44209998846054077
O1182 O 0.875 0.19210000336170197 0.9420999884605408
O1183 O 0.875 0.6920999884605408 0.44209998846054077
O1184 O 0.875 0.6920999884605408 0.9420999884605408
O1185 O 0.375 0.30790001153945923 0.05790000036358833
O1186 O 0.375 0.30790001153945923 0.5579000115394592
O1187 O 0.375 0.8079000115394592 0.05790000036358833
O1188 O 0.375 0.8079000115394592 0.5579000115394592
O1189 O 0.875 0.30790001153945923 0.05790000036358833
O1190 O 0.875 0.30790001153945923 0.5579000115394592
O1191 O 0.875 0.8079000115394592 0.05790000036358833
O1192 O 0.875 0.8079000115394592 0.5579000115394592
O1193 O 0.375 0.30790001153945923 0.44209998846054077
O1194 O 0.375 0.30790001153945923 0.9420999884605408
O1195 O 0.375 0.8079000115394592 0.44209998846054077
O1196 O 0.375 0.8079000115394592 0.9420999884605408
O1197 O 0.875 0.30790001153945923 0.44209998846054077
O1198 O 0.875 0.30790001153945923 0.9420999884605408
O1199 O 0.875 0.8079000115394592 0.44209998846054077
O1200 O 0.875 0.8079000115394592 0.9420999884605408
O1201 O 0.375 0.44209998846054077 0.19210000336170197
O1202 O 0.375 0.44209998846054077 0.6920999884605408
O1203 O 0.375 0.9420999884605408 0.19210000336170197
O1204 O 0.375 0.9420999884605408 0.6920999884605408
O1205 O 0.875 0.44209998846054077 0.19210000336170197
O1206 O 0.875 0.44209998846054077 0.6920999884605408
O1207 O 0.875 0.9420999884605408 0.19210000336170197
O1208 O 0.875 0.9420999884605408 0.6920999884605408
O1209 O 0.375 0.44209998846054077 0.30790001153945923
O1210 O 0.375 0.44209998846054077 0.8079000115394592
O1211 O 0.375 0.9420999884605408 0.30790001153945923
O1212 O 0.375 0.9420999884605408 0.8079000115394592
O1213 O 0.875 0.44209998846054077 0.30790001153945923
O1214 O 0.875 0.44209998846054077 0.8079000115394592
O1215 O 0.875 0.9420999884605408 0.30790001153945923
O1216 O 0.875 0.9420999884605408 0.8079000115394592
O1217 O 0.3776000142097473 0.045899998396635056 0.12240000069141388
O1218 O 0.3776000142097473 0.045899998396635056 0.6223999857902527
O1219 O 0.3776000142097473 0.5458999872207642 0.12240000069141388
O1220 O 0.3776000142097473 0.5458999872207642 0.6223999857902527
O1221 O 0.8776000142097473 0.045899998396635056 0.12240000069141388
O1222 O 0.8776000142097473 0.045899998396635056 0.6223999857902527
O1223 O 0.8776000142097473 0.5458999872207642 0.12240000069141388
O1224 O 0.8776000142097473 0.5458999872207642 0.6223999857902527
O1225 O 0.3776000142097473 0.045899998396635056 0.3776000142097473
O1226 O 0.3776000142097473 0.045899998396635056 0.8776000142097473
O1227 O 0.3776000142097473 0.5458999872207642 0.3776000142097473
O1228 O 0.3776000142097473 0.5458999872207642 0.8776000142097473
O1229 O 0.8776000142097473 0.045899998396635056 0.3776000142097473
O1230 O 0.8776000142097473 0.045899998396635056 0.8776000142097473
O1231 O 0.8776000142097473 0.5458999872207642 0.3776000142097473
O1232 O 0.8776000142097473 0.5458999872207642 0.8776000142097473
O1233 O 0.3776000142097473 0.12240000069141388 0.045899998396635056
O1234 O 0.3776000142097473 0.12240000069141388 0.5458999872207642
O1235 O 0.3776000142097473 0.6223999857902527 0.045899998396635056
O1236 O 0.3776000142097473 0.6223999857902527 0.5458999872207642
O1237 O 0.8776000142097473 0.12240000069141388 0.045899998396635056
O1238 O 0.8776000142097473 0.12240000069141388 0.5458999872207642
O1239 O 0.8776000142097473 0.6223999857902527 0.045899998396635056
O1240 O 0.8776000142097473 0.6223999857902527 0.5458999872207642
O1241 O 0.3776000142097473 0.12240000069141388 0.45410001277923584
O1242 O 0.3776000142097473 0.12240000069141388 0.9541000127792358
O1243 O 0.3776000142097473 0.6223999857902527 0.45410001277923584
O1244 O 0.3776000142097473 0.6223999857902527 0.9541000127792358
O1245 O 0.8776000142097473 0.12240000069141388 0.45410001277923584
O1246 O 0.8776000142097473 0.12240000069141388 0.9541000127792358
O1247 O 0.8776000142097473 0.6223999857902527 0.45410001277923584
O1248 O 0.8776000142097473 0.6223999857902527 0.9541000127792358
O1249 O 0.3776000142097473 0.3776000142097473 0.045899998396635056
O1250 O 0.3776000142097473 0.3776000142097473 0.5458999872207642
O1251 O 0.3776000142097473 0.8776000142097473 0.045899998396635056
O1252 O 0.3776000142097473 0.8776000142097473 0.5458999872207642
O1253 O 0.8776000142097473 0.3776000142097473 0.045899998396635056
O1254 O 0.8776000142097473 0.3776000142097473 0.5458999872207642
O1255 O 0.8776000142097473 0.8776000142097473 0.045899998396635056
O1256 O 0.8776000142097473 0.8776000142097473 0.5458999872207642
O1257 O 0.3776000142097473 0.3776000142097473 0.45410001277923584
O1258 O 0.3776000142097473 0.3776000142097473 0.9541000127792358
O1259 O 0.3776000142097473 0.8776000142097473 0.45410001277923584
O1260 O 0.3776000142097473 0.8776000142097473 0.9541000127792358
O1261 O 0.8776000142097473 0.3776000142097473 0.45410001277923584
O1262 O 0.8776000142097473 0.3776000142097473 0.9541000127792358
O1263 O 0.8776000142097473 0.8776000142097473 0.45410001277923584
O1264 O 0.8776000142097473 0.8776000142097473 0.9541000127792358
O1265 O 0.3776000142097473 0.45410001277923584 0.12240000069141388
O1266 O 0.3776000142097473 0.45410001277923584 0.6223999857902527
O1267 O 0.3776000142097473 0.9541000127792358 0.12240000069141388
O1268 O 0.3776000142097473 0.9541000127792358 0.6223999857902527
O1269 O 0.8776000142097473 0.45410001277923584 0.12240000069141388
O1270 O 0.8776000142097473 0.45410001277923584 0.6223999857902527
O1271 O 0.8776000142097473 0.9541000127792358 0.12240000069141388
O1272 O 0.8776000142097473 0.9541000127792358 0.6223999857902527
O1273 O 0.3776000142097473 0.45410001277923584 0.3776000142097473
O1274 O 0.3776000142097473 0.45410001277923584 0.8776000142097473
O1275 O 0.3776000142097473 0.9541000127792358 0.3776000142097473
O1276 O 0.3776000142097473 0.9541000127792358 0.8776000142097473
O1277 O 0.8776000142097473 0.45410001277923584 0.3776000142097473
O1278 O 0.8776000142097473 0.45410001277923584 0.8776000142097473
O1279 O 0.8776000142097473 0.9541000127792358 0.3776000142097473
O1280 O 0.8776000142097473 0.9541000127792358 0.8776000142097473
O1281 O 0.40720000863075256 0.0 0.16740000247955322
O1282 O 0.40720000863075256 0.0 0.6674000024795532
O1283 O 0.40720000863075256 0.5 0.16740000247955322
O1284 O 0.40720000863075256 0.5 0.6674000024795532
O1285 O 0.9071999788284302 0.0 0.16740000247955322
O1286 O 0.9071999788284302 0.0 0.6674000024795532
O1287 O 0.9071999788284302 0.5 0.16740000247955322
O1288 O 0.9071999788284302 0.5 0.6674000024795532
O1289 O 0.40720000863075256 0.0 0.3325999975204468
O1290 O 0.40720000863075256 0.0 0.8325999975204468
O1291 O 0.40720000863075256 0.5 0.3325999975204468
O1292 O 0.40720000863075256 0.5 0.8325999975204468
O1293 O 0.9071999788284302 0.0 0.3325999975204468
O1294 O 0.9071999788284302 0.0 0.8325999975204468
O1295 O 0.9071999788284302 0.5 0.3325999975204468
O1296 O 0.9071999788284302 0.5 0.8325999975204468
O1297 O 0.40720000863075256 0.16740000247955322 0.0
O1298 O 0.40720000863075256 0.16740000247955322 0.5
O1299 O 0.40720000863075256 0.6674000024795532 0.0
O1300 O 0.40720000863075256 0.6674000024795532 0.5
O1301 O 0.9071999788284302 0.16740000247955322 0.0
O1302 O 0.9071999788284302 0.16740000247955322 0.5
O1303 O 0.9071999788284302 0.6674000024795532 0.0
O1304 O 0.9071999788284302 0.6674000024795532 0.5
O1305 O 0.40720000863075256 0.3325999975204468 0.0
O1306 O 0.40720000863075256 0.3325999975204468 0.5
O1307 O 0.40720000863075256 0.8325999975204468 0.0
O1308 O 0.40720000863075256 0.8325999975204468 0.5
O1309 O 0.9071999788284302 0.3325999975204468 0.0
O1310 O 0.9071999788284302 0.3325999975204468 0.5
O1311 O 0.9071999788284302 0.8325999975204468 0.0
O1312 O 0.9071999788284302 0.8325999975204468 0.5
O1313 O 0.40744999051094055 0.18645000457763672 0.18645000457763672
O1314 O 0.40744999051094055 0.18645000457763672 0.6864500045776367
O1315 O 0.40744999051094055 0.6864500045776367 0.18645000457763672
O1316 O 0.40744999051094055 0.6864500045776367 0.6864500045776367
O1317 O 0.9074500203132629 0.18645000457763672 0.18645000457763672
O1318 O 0.9074500203132629 0.18645000457763672 0.6864500045776367
O1319 O 0.9074500203132629 0.6864500045776367 0.18645000457763672
O1320 O 0.9074500203132629 0.6864500045776367 0.6864500045776367
O1321 O 0.40744999051094055 0.18645000457763672 0.3135499954223633
O1322 O 0.40744999051094055 0.18645000457763672 0.8135499954223633
O1323 O 0.40744999051094055 0.6864500045776367 0.3135499954223633
O1324 O 0.40744999051094055 0.6864500045776367 0.8135499954223633
O1325 O 0.9074500203132629 0.18645000457763672 0.3135499954223633
O1326 O 0.9074500203132629 0.18645000457763672 0.8135499954223633
O1327 O 0.9074500203132629 0.6864500045776367 0.3135499954223633
O1328 O 0.9074500203132629 0.6864500045776367 0.8135499954223633
O1329 O 0.40744999051094055 0.3135499954223633 0.18645000457763672
O1330 O 0.40744999051094055 0.3135499954223633 0.6864500045776367
O1331 O 0.40744999051094055 0.8135499954223633 0.18645000457763672
O1332 O 0.40744999051094055 0.8135499954223633 0.6864500045776367
O1333 O 0.9074500203132629 0.3135499954223633 0.18645000457763672
O1334 O 0.9074500203132629 0.3135499954223633 0.6864500045776367
O1335 O 0.9074500203132629 0.8135499954223633 0.18645000457763672
O1336 O 0.9074500203132629 0.8135499954223633 0.6864500045776367
O1337 O 0.40744999051094055 0.3135499954223633 0.3135499954223633
O1338 O 0.40744999051094055 0.3135499954223633 0.8135499954223633
O1339 O 0.40744999051094055 0.8135499954223633 0.3135499954223633
O1340 O 0.40744999051094055 0.8135499954223633 0.8135499954223633
O1341 O 0.9074500203132629 0.3135499954223633 0.3135499954223633
O1342 O 0.9074500203132629 0.3135499954223633 0.8135499954223633
O1343 O 0.9074500203132629 0.8135499954223633 0.3135499954223633
O1344 O 0.9074500203132629 0.8135499954223633 0.8135499954223633
O1345 O 0.4174000024795532 0.15719999372959137 0.25
O1346 O 0.4174000024795532 0.15719999372959137 0.75
O1347 O 0.4174000024795532 0.6571999788284302 0.25
O1348 O 0.4174000024795532 0.6571999788284302 0.75
O1349 O 0.9174000024795532 0.15719999372959137 0.25
O1350 O 0.9174000024795532 0.15719999372959137 0.75
O1351 O 0.9174000024795532 0.6571999788284302 0.25
O1352 O 0.9174000024795532 0.6571999788284302 0.75
O1353 O 0.4174000024795532 0.25 0.15719999372959137
O1354 O 0.4174000024795532 0.25 0.6571999788284302
O1355 O 0.4174000024795532 0.75 0.15719999372959137
O1356 O 0.4174000024795532 0.75 0.6571999788284302
O1357 O 0.9174000024795532 0.25 0.15719999372959137
O1358 O 0.9174000024795532 0.25 0.6571999788284302
O1359 O 0.9174000024795532 0.75 0.15719999372959137
O1360 O 0.9174000024795532 0.75 0.6571999788284302
O1361 O 0.4174000024795532 0.25 0.34279999136924744
O1362 O 0.4174000024795532 0.25 0.8428000211715698
O1363 O 0.4174000024795532 0.75 0.34279999136924744
O1364 O 0.4174000024795532 0.75 0.8428000211715698
O1365 O 0.9174000024795532 0.25 0.34279999136924744
O1366 O 0.9174000024795532 0.25 0.8428000211715698
O1367 O 0.9174000024795532 0.75 0.34279999136924744
O1368 O 0.9174000024795532 0.75 0.8428000211715698
O1369 O 0.4174000024795532 0.34279999136924744 0.25
O1370 O 0.4174000024795532 0.34279999136924744 0.75
O1371 O 0.4174000024795532 0.8428000211715698 0.25
O1372 O 0.4174000024795532 0.8428000211715698 0.75
O1373 O 0.9174000024795532 0.34279999136924744 0.25
O1374 O 0.9174000024795532 0.34279999136924744 0.75
O1375 O 0.9174000024795532 0.8428000211715698 0.25
O1376 O 0.9174000024795532 0.8428000211715698 0.75
O1377 O 0.4364500045776367 0.06355000287294388 0.15745000541210175
O1378 O 0.4364500045776367 0.06355000287294388 0.6574500203132629
O1379 O 0.4364500045776367 0.5635499954223633 0.15745000541210175
O1380 O 0.4364500045776367 0.5635499954223633 0.6574500203132629
O1381 O 0.9364500045776367 0.06355000287294388 0.15745000541210175
O1382 O 0.9364500045776367 0.06355000287294388 0.6574500203132629
O1383 O 0.9364500045776367 0.5635499954223633 0.15745000541210175
O1384 O 0.9364500045776367 0.5635499954223633 0.6574500203132629
O1385 O 0.4364500045776367 0.06355000287294388 0.34255000948905945
O1386 O 0.4364500045776367 0.06355000287294388 0.8425499796867371
O1387 O 0.4364500045776367 0.5635499954223633 0.34255000948905945
O1388 O 0.4364500045776367 0.5635499954223633 0.8425499796867371
O1389 O 0.9364500045776367 0.06355000287294388 0.34255000948905945
O1390 O 0.9364500045776367 0.06355000287294388 0.8425499796867371
O1391 O 0.9364500045776367 0.5635499954223633 0.34255000948905945
O1392 O 0.9364500045776367 0.5635499954223633 0.8425499796867371
O1393 O 0.4364500045776367 0.15745000541210175 0.06355000287294388
O1394 O 0.4364500045776367 0.15745000541210175 0.5635499954223633
O1395 O 0.4364500045776367 0.6574500203132629 0.06355000287294388
O1396 O 0.4364500045776367 0.6574500203132629 0.5635499954223633
O1397 O 0.9364500045776367 0.15745000541210175 0.06355000287294388
O1398 O 0.9364500045776367 0.15745000541210175 0.5635499954223633
O1399 O 0.9364500045776367 0.6574500203132629 0.06355000287294388
O1400 O 0.9364500045776367 0.6574500203132629 0.5635499954223633
O1401 O 0.4364500045776367 0.15745000541210175 0.4364500045776367
O1402 O 0.4364500045776367 0.15745000541210175 0.9364500045776367
O1403 O 0.4364500045776367 0.6574500203132629 0.4364500045776367
O1404 O 0.4364500045776367 0.6574500203132629 0.9364500045776367
O1405 O 0.9364500045776367 0.15745000541210175 0.4364500045776367
O1406 O 0.9364500045776367 0.15745000541210175 0.9364500045776367
O1407 O 0.9364500045776367 0.6574500203132629 0.4364500045776367
O1408 O 0.9364500045776367 0.6574500203132629 0.9364500045776367
O1409 O 0.4364500045776367 0.34255000948905945 0.06355000287294388
O1410 O 0.4364500045776367 0.34255000948905945 0.5635499954223633
O1411 O 0.4364500045776367 0.8425499796867371 0.06355000287294388
O1412 O 0.4364500045776367 0.8425499796867371 0.5635499954223633
O1413 O 0.9364500045776367 0.34255000948905945 0.06355000287294388
O1414 O 0.9364500045776367 0.34255000948905945 0.5635499954223633
O1415 O 0.9364500045776367 0.8425499796867371 0.06355000287294388
O1416 O 0.9364500045776367 0.8425499796867371 0.5635499954223633
O1417 O 0.4364500045776367 0.34255000948905945 0.4364500045776367
O1418 O 0.4364500045776367 0.34255000948905945 0.9364500045776367
O1419 O 0.4364500045776367 0.8425499796867371 0.4364500045776367
O1420 O 0.4364500045776367 0.8425499796867371 0.9364500045776367
O1421 O 0.9364500045776367 0.34255000948905945 0.4364500045776367
O1422 O 0.9364500045776367 0.34255000948905945 0.9364500045776367
O1423 O 0.9364500045776367 0.8425499796867371 0.4364500045776367
O1424 O 0.9364500045776367 0.8425499796867371 0.9364500045776367
O1425 O 0.4364500045776367 0.4364500045776367 0.15745000541210175
O1426 O 0.4364500045776367 0.4364500045776367 0.6574500203132629
O1427 O 0.4364500045776367 0.9364500045776367 0.15745000541210175
O1428 O 0.4364500045776367 0.9364500045776367 0.6574500203132629
O1429 O 0.9364500045776367 0.4364500045776367 0.15745000541210175
O1430 O 0.9364500045776367 0.4364500045776367 0.6574500203132629
O1431 O 0.9364500045776367 0.9364500045776367 0.15745000541210175
O1432 O 0.9364500045776367 0.9364500045776367 0.6574500203132629
O1433 O 0.4364500045776367 0.4364500045776367 0.34255000948905945
O1434 O 0.4364500045776367 0.4364500045776367 0.8425499796867371
O1435 O 0.4364500045776367 0.9364500045776367 0.34255000948905945
O1436 O 0.4364500045776367 0.9364500045776367 0.8425499796867371
O1437 O 0.9364500045776367 0.4364500045776367 0.34255000948905945
O1438 O 0.9364500045776367 0.4364500045776367 0.8425499796867371
O1439 O 0.9364500045776367 0.9364500045776367 0.34255000948905945
O1440 O 0.9364500045776367 0.9364500045776367 0.8425499796867371
O1441 O 0.44209998846054077 0.125 0.19210000336170197
O1442 O 0.44209998846054077 0.125 0.6920999884605408
O1443 O 0.44209998846054077 0.625 0.19210000336170197
O1444 O 0.44209998846054077 0.625 0.6920999884605408
O1445 O 0.9420999884605408 0.125 0.19210000336170197
O1446 O 0.9420999884605408 0.125 0.6920999884605408
O1447 O 0.9420999884605408 0.625 0.19210000336170197
O1448 O 0.9420999884605408 0.625 0.6920999884605408
O1449 O 0.44209998846054077 0.125 0.30790001153945923
O1450 O 0.44209998846054077 0.125 0.8079000115394592
O1451 O 0.44209998846054077 0.625 0.30790001153945923
O1452 O 0.44209998846054077 0.625 0.8079000115394592
O1453 O 0.9420999884605408 0.125 0.30790001153945923
O1454 O 0.9420999884605408 0.125 0.8079000115394592
O1455 O 0.9420999884605408 0.625 0.30790001153945923
O1456 O 0.9420999884605408 0.625 0.8079000115394592
O1457 O 0.44209998846054077 0.19210000336170197 0.125
O1458 O 0.44209998846054077 0.19210000336170197 0.625
O1459 O 0.44209998846054077 0.6920999884605408 0.125
O1460 O 0.44209998846054077 0.6920999884605408 0.625
O1461 O 0.9420999884605408 0.19210000336170197 0.125
O1462 O 0.9420999884605408 0.19210000336170197 0.625
O1463 O 0.9420999884605408 0.6920999884605408 0.125
O1464 O 0.9420999884605408 0.6920999884605408 0.625
O1465 O 0.44209998846054077 0.19210000336170197 0.375
O1466 O 0.44209998846054077 0.19210000336170197 0.875
O1467 O 0.44209998846054077 0.6920999884605408 0.375
O1468 O 0.44209998846054077 0.6920999884605408 0.875
O1469 O 0.9420999884605408 0.19210000336170197 0.375
O1470 O 0.9420999884605408 0.19210000336170197 0.875
O1471 O 0.9420999884605408 0.6920999884605408 0.375
O1472 O 0.9420999884605408 0.6920999884605408 0.875
O1473 O 0.44209998846054077 0.30790001153945923 0.125
O1474 O 0.44209998846054077 0.30790001153945923 0.625
O1475 O 0.44209998846054077 0.8079000115394592 0.125
O1476 O 0.44209998846054077 0.8079000115394592 0.625
O1477 O 0.9420999884605408 0.30790001153945923 0.125
O1478 O 0.9420999884605408 0.30790001153945923 0.625
O1479 O 0.9420999884605408 0.8079000115394592 0.125
O1480 O 0.9420999884605408 0.8079000115394592 0.625
O1481 O 0.44209998846054077 0.30790001153945923 0.375
O1482 O 0.44209998846054077 0.30790001153945923 0.875
O1483 O 0.44209998846054077 0.8079000115394592 0.375
O1484 O 0.44209998846054077 0.8079000115394592 0.875
O1485 O 0.9420999884605408 0.30790001153945923 0.375
O1486 O 0.9420999884605408 0.30790001153945923 0.875
O1487 O 0.9420999884605408 0.8079000115394592 0.375
O1488 O 0.9420999884605408 0.8079000115394592 0.875
O1489 O 0.44209998846054077 0.375 0.19210000336170197
O1490 O 0.44209998846054077 0.375 0.6920999884605408
O1491 O 0.44209998846054077 0.875 0.19210000336170197
O1492 O 0.44209998846054077 0.875 0.6920999884605408
O1493 O 0.9420999884605408 0.375 0.19210000336170197
O1494 O 0.9420999884605408 0.375 0.6920999884605408
O1495 O 0.9420999884605408 0.875 0.19210000336170197
O1496 O 0.9420999884605408 0.875 0.6920999884605408
O1497 O 0.44209998846054077 0.375 0.30790001153945923
O1498 O 0.44209998846054077 0.375 0.8079000115394592
O1499 O 0.44209998846054077 0.875 0.30790001153945923
O1500 O 0.44209998846054077 0.875 0.8079000115394592
O1501 O 0.9420999884605408 0.375 0.30790001153945923
O1502 O 0.9420999884605408 0.375 0.8079000115394592
O1503 O 0.9420999884605408 0.875 0.30790001153945923
O1504 O 0.9420999884605408 0.875 0.8079000115394592
O1505 O 0.45410001277923584 0.12240000069141388 0.12240000069141388
O1506 O 0.45410001277923584 0.12240000069141388 0.6223999857902527
O1507 O 0.45410001277923584 0.6223999857902527 0.12240000069141388
O1508 O 0.45410001277923584 0.6223999857902527 0.6223999857902527
O1509 O 0.9541000127792358 0.12240000069141388 0.12240000069141388
O1510 O 0.9541000127792358 0.12240000069141388 0.6223999857902527
O1511 O 0.9541000127792358 0.6223999857902527 0.12240000069141388
O1512 O 0.9541000127792358 0.6223999857902527 0.6223999857902527
O1513 O 0.45410001277923584 0.12240000069141388 0.3776000142097473
O1514 O 0.45410001277923584 0.12240000069141388 0.8776000142097473
O1515 O 0.45410001277923584 0.6223999857902527 0.3776000142097473
O1516 O 0.45410001277923584 0.6223999857902527 0.8776000142097473
O1517 O 0.9541000127792358 0.12240000069141388 0.3776000142097473
O1518 O 0.9541000127792358 0.12240000069141388 0.8776000142097473
O1519 O 0.9541000127792358 0.6223999857902527 0.3776000142097473
O1520 O 0.9541000127792358 0.6223999857902527 0.8776000142097473
O1521 O 0.45410001277923584 0.3776000142097473 0.12240000069141388
O1522 O 0.45410001277923584 0.3776000142097473 0.6223999857902527
O1523 O 0.45410001277923584 0.8776000142097473 0.12240000069141388
O1524 O 0.45410001277923584 0.8776000142097473 0.6223999857902527
O1525 O 0.9541000127792358 0.3776000142097473 0.12240000069141388
O1526 O 0.9541000127792358 0.3776000142097473 0.6223999857902527
O1527 O 0.9541000127792358 0.8776000142097473 0.12240000069141388
O1528 O 0.9541000127792358 0.8776000142097473 0.6223999857902527
O1529 O 0.45410001277923584 0.3776000142097473 0.3776000142097473
O1530 O 0.45410001277923584 0.3776000142097473 0.8776000142097473
O1531 O 0.45410001277923584 0.8776000142097473 0.3776000142097473
O1532 O 0.45410001277923584 0.8776000142097473 0.8776000142097473
O1533 O 0.9541000127792358 0.3776000142097473 0.3776000142097473
O1534 O 0.9541000127792358 0.3776000142097473 0.8776000142097473
O1535 O 0.9541000127792358 0.8776000142097473 0.3776000142097473
O1536 O 0.9541000127792358 0.8776000142097473 0.8776000142097473
Si1537 Si 0.041850000619888306 0.10100000351667404 0.15985000133514404
Si1538 Si 0.041850000619888306 0.10100000351667404 0.659850001335144
Si1539 Si 0.041850000619888306 0.6010000109672546 0.15985000133514404
Si1540 Si 0.041850000619888306 0.6010000109672546 0.659850001335144
Si1541 Si 0.5418499708175659 0.10100000351667404 0.15985000133514404
Si1542 Si 0.5418499708175659 0.10100000351667404 0.659850001335144
Si1543 Si 0.5418499708175659 0.6010000109672546 0.15985000133514404
Si1544 Si 0.5418499708175659 0.6010000109672546 0.659850001335144
Si1545 Si 0.041850000619888306 0.10100000351667404 0.34014999866485596
Si1546 Si 0.041850000619888306 0.10100000351667404 0.840149998664856
Si1547 Si 0.041850000619888306 0.6010000109672546 0.34014999866485596
Si1548 Si 0.041850000619888306 0.6010000109672546 0.840149998664856
Si1549 Si 0.5418499708175659 0.10100000351667404 0.34014999866485596
Si1550 Si 0.5418499708175659 0.10100000351667404 0.840149998664856
Si1551 Si 0.5418499708175659 0.6010000109672546 0.34014999866485596
Si1552 Si 0.5418499708175659 0.6010000109672546 0.840149998664856
Si1553 Si 0.041850000619888306 0.15985000133514404 0.10100000351667404
Si1554 Si 0.041850000619888306 0.15985000133514404 0.6010000109672546
Si1555 Si 0.041850000619888306 0.659850001335144 0.10100000351667404
Si1556 Si 0.041850000619888306 0.659850001335144 0.6010000109672546
Si1557 Si 0.5418499708175659 0.15985000133514404 0.10100000351667404
Si1558 Si 0.5418499708175659 0.15985000133514404 0.6010000109672546
Si1559 Si 0.5418499708175659 0.659850001335144 0.10100000351667404
Si1560 Si 0.5418499708175659 0.659850001335144 0.6010000109672546
Si1561 Si 0.041850000619888306 0.15985000133514404 0.39899998903274536
Si1562 Si 0.041850000619888306 0.15985000133514404 0.8989999890327454
Si1563 Si 0.041850000619888306 0.659850001335144 0.39899998903274536
Si1564 Si 0.041850000619888306 0.659850001335144 0.8989999890327454
Si1565 Si 0.5418499708175659 0.15985000133514404 0.39899998903274536
Si1566 Si 0.5418499708175659 0.15985000133514404 0.8989999890327454
Si1567 Si 0.5418499708175659 0.659850001335144 0.39899998903274536
Si1568 Si 0.5418499708175659 0.659850001335144 0.8989999890327454
Si1569 Si 0.041850000619888306 0.34014999866485596 0.10100000351667404
Si1570 Si 0.041850000619888306 0.34014999866485596 0.6010000109672546
Si1571 Si 0.041850000619888306 0.840149998664856 0.10100000351667404
Si1572 Si 0.041850000619888306 0.840149998664856 0.6010000109672546
Si1573 Si 0.5418499708175659 0.34014999866485596 0.10100000351667404
Si1574 Si 0.5418499708175659 0.34014999866485596 0.6010000109672546
Si1575 Si 0.5418499708175659 0.840149998664856 0.10100000351667404
Si1576 Si 0.5418499708175659 0.840149998664856 0.6010000109672546
Si1577 Si 0.041850000619888306 0.34014999866485596 0.39899998903274536
Si1578 Si 0.041850000619888306 0.34014999866485596 0.8989999890327454
Si1579 Si 0.041850000619888306 0.840149998664856 0.39899998903274536
Si1580 Si 0.041850000619888306 0.840149998664856 0.8989999890327454
Si1581 Si 0.5418499708175659 0.34014999866485596 0.39899998903274536
Si1582 Si 0.5418499708175659 0.34014999866485596 0.8989999890327454
Si1583 Si 0.5418499708175659 0.840149998664856 0.39899998903274536
Si1584 Si 0.5418499708175659 0.840149998664856 0.8989999890327454
Si1585 Si 0.041850000619888306 0.39899998903274536 0.15985000133514404
Si1586 Si 0.041850000619888306 0.39899998903274536 0.659850001335144
Si1587 Si 0.041850000619888306 0.8989999890327454 0.15985000133514404
Si1588 Si 0.041850000619888306 0.8989999890327454 0.659850001335144
Si1589 Si 0.5418499708175659 0.39899998903274536 0.15985000133514404
Si1590 Si 0.5418499708175659 0.39899998903274536 0.659850001335144
Si1591 Si 0.5418499708175659 0.8989999890327454 0.15985000133514404
Si1592 Si 0.5418499708175659 0.8989999890327454 0.659850001335144
Si1593 Si 0.041850000619888306 0.39899998903274536 0.34014999866485596
Si1594 Si 0.041850000619888306 0.39899998903274536 0.840149998664856
Si1595 Si 0.041850000619888306 0.8989999890327454 0.34014999866485596
Si1596 Si 0.041850000619888306 0.8989999890327454 0.840149998664856
Si1597 Si 0.5418499708175659 0.39899998903274536 0.34014999866485596
Si1598 Si 0.5418499708175659 0.39899998903274536 0.840149998664856
Si1599 Si 0.5418499708175659 0.8989999890327454 0.34014999866485596
Si1600 Si 0.5418499708175659 0.8989999890327454 0.840149998664856
Si1601 Si 0.09014999866485596 0.14900000393390656 0.2081499993801117
Si1602 Si 0.09014999866485596 0.14900000393390656 0.7081500291824341
Si1603 Si 0.09014999866485596 0.6489999890327454 0.2081499993801117
Si1604 Si 0.09014999866485596 0.6489999890327454 0.7081500291824341
Si1605 Si 0.590149998664856 0.14900000393390656 0.2081499993801117
Si1606 Si 0.590149998664856 0.14900000393390656 0.7081500291824341
Si1607 Si 0.590149998664856 0.6489999890327454 0.2081499993801117
Si1608 Si 0.590149998664856 0.6489999890327454 0.7081500291824341
Si1609 Si 0.09014999866485596 0.14900000393390656 0.2918500006198883
Si1610 Si 0.09014999866485596 0.14900000393390656 0.7918499708175659
Si1611 Si 0.09014999866485596 0.6489999890327454 0.2918500006198883
Si1612 Si 0.09014999866485596 0.6489999890327454 0.7918499708175659
Si1613 Si 0.590149998664856 0.14900000393390656 0.2918500006198883
Si1614 Si 0.590149998664856 0.14900000393390656 0.7918499708175659
Si1615 Si 0.590149998664856 0.6489999890327454 0.2918500006198883
Si1616 Si 0.590149998664856 0.6489999890327454 0.7918499708175659
Si1617 Si 0.09014999866485596 0.2081499993801117 0.14900000393390656
Si1618 Si 0.09014999866485596 0.2081499993801117 0.6489999890327454
Si1619 Si 0.09014999866485596 0.7081500291824341 0.14900000393390656
Si1620 Si 0.09014999866485596 0.7081500291824341 0.6489999890327454
Si1621 Si 0.590149998664856 0.2081499993801117 0.14900000393390656
Si1622 Si 0.590149998664856 0.2081499993801117 0.6489999890327454
Si1623 Si 0.590149998664856 0.7081500291824341 0.14900000393390656
Si1624 Si 0.590149998664856 0.7081500291824341 0.6489999890327454
Si1625 Si 0.09014999866485596 0.2081499993801117 0.35100001096725464
Si1626 Si 0.09014999866485596 0.2081499993801117 0.8510000109672546
Si1627 Si 0.09014999866485596 0.7081500291824341 0.35100001096725464
Si1628 Si 0.09014999866485596 0.7081500291824341 0.8510000109672546
Si1629 Si 0.590149998664856 0.2081499993801117 0.35100001096725464
Si1630 Si 0.590149998664856 0.2081499993801117 0.8510000109672546
Si1631 Si 0.590149998664856 0.7081500291824341 0.35100001096725464
Si1632 Si 0.590149998664856 0.7081500291824341 0.8510000109672546
Si1633 Si 0.09014999866485596 0.2918500006198883 0.14900000393390656
Si1634 Si 0.09014999866485596 0.2918500006198883 0.6489999890327454
Si1635 Si 0.09014999866485596 0.7918499708175659 0.14900000393390656
Si1636 Si 0.09014999866485596 0.7918499708175659 0.6489999890327454
Si1637 Si 0.590149998664856 0.2918500006198883 0.14900000393390656
Si1638 Si 0.590149998664856 0.2918500006198883 0.6489999890327454
Si1639 Si 0.590149998664856 0.7918499708175659 0.14900000393390656
Si1640 Si 0.590149998664856 0.7918499708175659 0.6489999890327454
Si1641 Si 0.09014999866485596 0.2918500006198883 0.35100001096725464
Si1642 Si 0.09014999866485596 0.2918500006198883 0.8510000109672546
Si1643 Si 0.09014999866485596 0.7918499708175659 0.35100001096725464
Si1644 Si 0.09014999866485596 0.7918499708175659 0.8510000109672546
Si1645 Si 0.590149998664856 0.2918500006198883 0.35100001096725464
Si1646 Si 0.590149998664856 0.2918500006198883 0.8510000109672546
Si1647 Si 0.590149998664856 0.7918499708175659 0.35100001096725464
Si1648 Si 0.590149998664856 0.7918499708175659 0.8510000109672546
Si1649 Si 0.09014999866485596 0.35100001096725464 0.2081499993801117
Si1650 Si 0.09014999866485596 0.35100001096725464 0.7081500291824341
Si1651 Si 0.09014999866485596 0.8510000109672546 0.2081499993801117
Si1652 Si 0.09014999866485596 0.8510000109672546 0.7081500291824341
Si1653 Si 0.590149998664856 0.35100001096725464 0.2081499993801117
Si1654 Si 0.590149998664856 0.35100001096725464 0.7081500291824341
Si1655 Si 0.590149998664856 0.8510000109672546 0.2081499993801117
Si1656 Si 0.590149998664856 0.8510000109672546 0.7081500291824341
Si1657 Si 0.09014999866485596 0.35100001096725464 0.2918500006198883
Si1658 Si 0.09014999866485596 0.35100001096725464 0.7918499708175659
Si1659 Si 0.09014999866485596 0.8510000109672546 0.2918500006198883
Si1660 Si 0.09014999866485596 0.8510000109672546 0.7918499708175659
Si1661 Si 0.590149998664856 0.35100001096725464 0.2918500006198883
Si1662 Si 0.590149998664856 0.35100001096725464 0.7918499708175659
Si1663 Si 0.590149998664856 0.8510000109672546 0.2918500006198883
Si1664 Si 0.590149998664856 0.8510000109672546 0.7918499708175659
Si1665 Si 0.10100000351667404 0.041850000619888306 0.15985000133514404
Si1666 Si 0.10100000351667404 0.041850000619888306 0.659850001335144
Si1667 Si 0.10100000351667404 0.5418499708175659 0.15985000133514404
Si1668 Si 0.10100000351667404 0.5418499708175659 0.659850001335144
Si1669 Si 0.6010000109672546 0.041850000619888306 0.15985000133514404
Si1670 Si 0.6010000109672546 0.041850000619888306 0.659850001335144
Si1671 Si 0.6010000109672546 0.5418499708175659 0.15985000133514404
Si1672 Si 0.6010000109672546 0.5418499708175659 0.659850001335144
Si1673 Si 0.10100000351667404 0.041850000619888306 0.34014999866485596
Si1674 Si 0.10100000351667404 0.041850000619888306 0.840149998664856
Si1675 Si 0.10100000351667404 0.5418499708175659 0.34014999866485596
Si1676 Si 0.10100000351667404 0.5418499708175659 0.840149998664856
Si1677 Si 0.6010000109672546 0.041850000619888306 0.34014999866485596
Si1678 Si 0.6010000109672546 0.041850000619888306 0.840149998664856
Si1679 Si 0.6010000109672546 0.5418499708175659 0.34014999866485596
Si1680 Si 0.6010000109672546 0.5418499708175659 0.840149998664856
Si1681 Si 0.10100000351667404 0.15985000133514404 0.041850000619888306
Si1682 Si 0.10100000351667404 0.15985000133514404 0.5418499708175659
Si1683 Si 0.10100000351667404 0.659850001335144 0.041850000619888306
Si1684 Si 0.10100000351667404 0.659850001335144 0.5418499708175659
Si1685 Si 0.6010000109672546 0.15985000133514404 0.041850000619888306
Si1686 Si 0.6010000109672546 0.15985000133514404 0.5418499708175659
Si1687 Si 0.6010000109672546 0.659850001335144 0.041850000619888306
Si1688 Si 0.6010000109672546 0.659850001335144 0.5418499708175659
Si1689 Si 0.10100000351667404 0.15985000133514404 0.4581499993801117
Si1690 Si 0.10100000351667404 0.15985000133514404 0.9581500291824341
Si1691 Si 0.10100000351667404 0.659850001335144 0.4581499993801117
Si1692 Si 0.10100000351667404 0.659850001335144 0.9581500291824341
Si1693 Si 0.6010000109672546 0.15985000133514404 0.4581499993801117
Si1694 Si 0.6010000109672546 0.15985000133514404 0.9581500291824341
Si1695 Si 0.6010000109672546 0.659850001335144 0.4581499993801117
Si1696 Si 0.6010000109672546 0.659850001335144 0.9581500291824341
Si1697 Si 0.10100000351667404 0.34014999866485596 0.041850000619888306
Si1698 Si 0.10100000351667404 0.34014999866485596 0.5418499708175659
Si1699 Si 0.10100000351667404 0.840149998664856 0.041850000619888306
Si1700 Si 0.10100000351667404 0.840149998664856 0.5418499708175659
Si1701 Si 0.6010000109672546 0.34014999866485596 0.041850000619888306
Si1702 Si 0.6010000109672546 0.34014999866485596 0.5418499708175659
Si1703 Si 0.6010000109672546 0.840149998664856 0.041850000619888306
Si1704 Si 0.6010000109672546 0.840149998664856 0.5418499708175659
Si1705 Si 0.10100000351667404 0.34014999866485596 0.4581499993801117
Si1706 Si 0.10100000351667404 0.34014999866485596 0.9581500291824341
Si1707 Si 0.10100000351667404 0.840149998664856 0.4581499993801117
Si1708 Si 0.10100000351667404 0.840149998664856 0.9581500291824341
Si1709 Si 0.6010000109672546 0.34014999866485596 0.4581499993801117
Si1710 Si 0.6010000109672546 0.34014999866485596 0.9581500291824341
Si1711 Si 0.6010000109672546 0.840149998664856 0.4581499993801117
Si1712 Si 0.6010000109672546 0.840149998664856 0.9581500291824341
Si1713 Si 0.10100000351667404 0.4581499993801117 0.15985000133514404
Si1714 Si 0.10100000351667404 0.4581499993801117 0.659850001335144
Si1715 Si 0.10100000351667404 0.9581500291824341 0.15985000133514404
Si1716 Si 0.10100000351667404 0.9581500291824341 0.659850001335144
Si1717 Si 0.6010000109672546 0.4581499993801117 0.15985000133514404
Si1718 Si 0.6010000109672546 0.4581499993801117 0.659850001335144
Si1719 Si 0.6010000109672546 0.9581500291824341 0.15985000133514404
Si1720 Si 0.6010000109672546 0.9581500291824341 0.659850001335144
Si1721 Si 0.10100000351667404 0.4581499993801117 0.34014999866485596
Si1722 Si 0.10100000351667404 0.4581499993801117 0.840149998664856
Si1723 Si 0.10100000351667404 0.9581500291824341 0.34014999866485596
Si1724 Si 0.10100000351667404 0.9581500291824341 0.840149998664856
Si1725 Si 0.6010000109672546 0.4581499993801117 0.34014999866485596
Si1726 Si 0.6010000109672546 0.4581499993801117 0.840149998664856
Si1727 Si 0.6010000109672546 0.9581500291824341 0.34014999866485596
Si1728 Si 0.6010000109672546 0.9581500291824341 0.840149998664856
Si1729 Si 0.14900000393390656 0.09014999866485596 0.2081499993801117
Si1730 Si 0.14900000393390656 0.09014999866485596 0.7081500291824341
Si1731 Si 0.14900000393390656 0.590149998664856 0.2081499993801117
Si1732 Si 0.14900000393390656 0.590149998664856 0.7081500291824341
Si1733 Si 0.6489999890327454 0.09014999866485596 0.2081499993801117
Si1734 Si 0.6489999890327454 0.09014999866485596 0.7081500291824341
Si1735 Si 0.6489999890327454 0.590149998664856 0.2081499993801117
Si1736 Si 0.6489999890327454 0.590149998664856 0.7081500291824341
Si1737 Si 0.14900000393390656 0.09014999866485596 0.2918500006198883
Si1738 Si 0.14900000393390656 0.09014999866485596 0.7918499708175659
Si1739 Si 0.14900000393390656 0.590149998664856 0.2918500006198883
Si1740 Si 0.14900000393390656 0.590149998664856 0.7918499708175659
Si1741 Si 0.6489999890327454 0.09014999866485596 0.2918500006198883
Si1742 Si 0.6489999890327454 0.09014999866485596 0.7918499708175659
Si1743 Si 0.6489999890327454 0.590149998664856 0.2918500006198883
Si1744 Si 0.6489999890327454 0.590149998664856 0.7918499708175659
Si1745 Si 0.14900000393390656 0.2081499993801117 0.09014999866485596
Si1746 Si 0.14900000393390656 0.2081499993801117 0.590149998664856
Si1747 Si 0.14900000393390656 0.7081500291824341 0.09014999866485596
Si1748 Si 0.14900000393390656 0.7081500291824341 0.590149998664856
Si1749 Si 0.6489999890327454 0.2081499993801117 0.09014999866485596
Si1750 Si 0.6489999890327454 0.2081499993801117 0.590149998664856
Si1751 Si 0.6489999890327454 0.7081500291824341 0.09014999866485596
Si1752 Si 0.6489999890327454 0.7081500291824341 0.590149998664856
Si1753 Si 0.14900000393390656 0.2081499993801117 0.40985000133514404
Si1754 Si 0.14900000393390656 0.2081499993801117 0.909850001335144
Si1755 Si 0.14900000393390656 0.7081500291824341 0.40985000133514404
Si1756 Si 0.14900000393390656 0.7081500291824341 0.909850001335144
Si1757 Si 0.6489999890327454 0.2081499993801117 0.40985000133514404
Si1758 Si 0.6489999890327454 0.2081499993801117 0.909850001335144
Si1759 Si 0.6489999890327454 0.7081500291824341 0.40985000133514404
Si1760 Si 0.6489999890327454 0.7081500291824341 0.909850001335144
Si1761 Si 0.14900000393390656 0.2918500006198883 0.09014999866485596
Si1762 Si 0.14900000393390656 0.2918500006198883 0.590149998664856
Si1763 Si 0.14900000393390656 0.7918499708175659 0.09014999866485596
Si1764 Si 0.14900000393390656 0.7918499708175659 0.590149998664856
Si1765 Si 0.6489999890327454 0.2918500006198883 0.09014999866485596
Si1766 Si 0.6489999890327454 0.2918500006198883 0.590149998664856
Si1767 Si 0.6489999890327454 0.7918499708175659 0.09014999866485596
Si1768 Si 0.6489999890327454 0.7918499708175659 0.590149998664856
Si1769 Si 0.14900000393390656 0.2918500006198883 0.40985000133514404
Si1770 Si 0.14900000393390656 0.2918500006198883 0.909850001335144
Si1771 Si 0.14900000393390656 0.7918499708175659 0.40985000133514404
Si1772 Si 0.14900000393390656 0.7918499708175659 0.909850001335144
Si1773 Si 0.6489999890327454 0.2918500006198883 0.40985000133514404
Si1774 Si 0.6489999890327454 0.2918500006198883 0.909850001335144
Si1775 Si 0.6489999890327454 0.7918499708175659 0.40985000133514404
Si1776 Si 0.6489999890327454 0.7918499708175659 0.909850001335144
Si1777 Si 0.14900000393390656 0.40985000133514404 0.2081499993801117
Si1778 Si 0.14900000393390656 0.40985000133514404 0.7081500291824341
Si1779 Si 0.14900000393390656 0.909850001335144 0.2081499993801117
Si1780 Si 0.14900000393390656 0.909850001335144 0.7081500291824341
Si1781 Si 0.6489999890327454 0.40985000133514404 0.2081499993801117
Si1782 Si 0.6489999890327454 0.40985000133514404 0.7081500291824341
Si1783 Si 0.6489999890327454 0.909850001335144 0.2081499993801117
Si1784 Si 0.6489999890327454 0.909850001335144 0.7081500291824341
Si1785 Si 0.14900000393390656 0.40985000133514404 0.2918500006198883
Si1786 Si 0.14900000393390656 0.40985000133514404 0.7918499708175659
Si1787 Si 0.14900000393390656 0.909850001335144 0.2918500006198883
Si1788 Si 0.14900000393390656 0.909850001335144 0.7918499708175659
Si1789 Si 0.6489999890327454 0.40985000133514404 0.2918500006198883
Si1790 Si 0.6489999890327454 0.40985000133514404 0.7918499708175659
Si1791 Si 0.6489999890327454 0.909850001335144 0.2918500006198883
Si1792 Si 0.6489999890327454 0.909850001335144 0.7918499708175659
Si1793 Si 0.15985000133514404 0.041850000619888306 0.10100000351667404
Si1794 Si 0.15985000133514404 0.041850000619888306 0.6010000109672546
Si1795 Si 0.15985000133514404 0.5418499708175659 0.10100000351667404
Si1796 Si 0.15985000133514404 0.5418499708175659 0.6010000109672546
Si1797 Si 0.659850001335144 0.041850000619888306 0.10100000351667404
Si1798 Si 0.659850001335144 0.041850000619888306 0.6010000109672546
Si1799 Si 0.659850001335144 0.5418499708175659 0.10100000351667404
Si1800 Si 0.659850001335144 0.5418499708175659 0.6010000109672546
Si1801 Si 0.15985000133514404 0.041850000619888306 0.39899998903274536
Si1802 Si 0.15985000133514404 0.041850000619888306 0.8989999890327454
Si1803 Si 0.15985000133514404 0.5418499708175659 0.39899998903274536
Si1804 Si 0.15985000133514404 0.5418499708175659 0.8989999890327454
Si1805 Si 0.659850001335144 0.041850000619888306 0.39899998903274536
Si1806 Si 0.659850001335144 0.041850000619888306 0.8989999890327454
Si1807 Si 0.659850001335144 0.5418499708175659 0.39899998903274536
Si1808 Si 0.659850001335144 0.5418499708175659 0.8989999890327454
Si1809 Si 0.15985000133514404 0.10100000351667404 0.041850000619888306
Si1810 Si 0.15985000133514404 0.10100000351667404 0.5418499708175659
Si1811 Si 0.15985000133514404 0.6010000109672546 0.041850000619888306
Si1812 Si 0.15985000133514404 0.6010000109672546 0.5418499708175659
Si1813 Si 0.659850001335144 0.10100000351667404 0.041850000619888306
Si1814 Si 0.659850001335144 0.10100000351667404 0.5418499708175659
Si1815 Si 0.659850001335144 0.6010000109672546 0.041850000619888306
Si1816 Si 0.659850001335144 0.6010000109672546 0.5418499708175659
Si1817 Si 0.15985000133514404 0.10100000351667404 0.4581499993801117
Si1818 Si 0.15985000133514404 0.10100000351667404 0.9581500291824341
Si1819 Si 0.15985000133514404 0.6010000109672546 0.4581499993801117
Si1820 Si 0.15985000133514404 0.6010000109672546 0.9581500291824341
Si1821 Si 0.659850001335144 0.10100000351667404 0.4581499993801117
Si1822 Si 0.659850001335144 0.10100000351667404 0.9581500291824341
Si1823 Si 0.659850001335144 0.6010000109672546 0.4581499993801117
Si1824 Si 0.659850001335144 0.6010000109672546 0.9581500291824341
Si1825 Si 0.15985000133514404 0.39899998903274536 0.041850000619888306
Si1826 Si 0.15985000133514404 0.39899998903274536 0.5418499708175659
Si1827 Si 0.15985000133514404 0.8989999890327454 0.041850000619888306
Si1828 Si 0.15985000133514404 0.8989999890327454 0.5418499708175659
Si1829 Si 0.659850001335144 0.39899998903274536 0.041850000619888306
Si1830 Si 0.659850001335144 0.39899998903274536 0.5418499708175659
Si1831 Si 0.659850001335144 0.8989999890327454 0.041850000619888306
Si1832 Si 0.659850001335144 0.8989999890327454 0.5418499708175659
Si1833 Si 0.15985000133514404 0.39899998903274536 0.4581499993801117
Si1834 Si 0.15985000133514404 0.39899998903274536 0.9581500291824341
Si1835 Si 0.15985000133514404 0.8989999890327454 0.4581499993801117
Si1836 Si 0.15985000133514404 0.8989999890327454 0.9581500291824341
Si1837 Si 0.659850001335144 0.39899998903274536 0.4581499993801117
Si1838 Si 0.659850001335144 0.39899998903274536 0.9581500291824341
Si1839 Si 0.659850001335144 0.8989999890327454 0.4581499993801117
Si1840 Si 0.659850001335144 0.8989999890327454 0.9581500291824341
Si1841 Si 0.15985000133514404 0.4581499993801117 0.10100000351667404
Si1842 Si 0.15985000133514404 0.4581499993801117 0.6010000109672546
Si1843 Si 0.15985000133514404 0.9581500291824341 0.10100000351667404
Si1844 Si 0.15985000133514404 0.9581500291824341 0.6010000109672546
Si1845 Si 0.659850001335144 0.4581499993801117 0.10100000351667404
Si1846 Si 0.659850001335144 0.4581499993801117 0.6010000109672546
Si1847 Si 0.659850001335144 0.9581500291824341 0.10100000351667404
Si1848 Si 0.659850001335144 0.9581500291824341 0.6010000109672546
Si1849 Si 0.15985000133514404 0.4581499993801117 0.39899998903274536
Si1850 Si 0.15985000133514404 0.4581499993801117 0.8989999890327454
Si1851 Si 0.15985000133514404 0.9581500291824341 0.39899998903274536
Si1852 Si 0.15985000133514404 0.9581500291824341 0.8989999890327454
Si1853 Si 0.659850001335144 0.4581499993801117 0.39899998903274536
Si1854 Si 0.659850001335144 0.4581499993801117 0.8989999890327454
Si1855 Si 0.659850001335144 0.9581500291824341 0.39899998903274536
Si1856 Si 0.659850001335144 0.9581500291824341 0.8989999890327454
Si1857 Si 0.2081499993801117 0.09014999866485596 0.14900000393390656
Si1858 Si 0.2081499993801117 0.09014999866485596 0.6489999890327454
Si1859 Si 0.2081499993801117 0.590149998664856 0.14900000393390656
Si1860 Si 0.2081499993801117 0.590149998664856 0.6489999890327454
Si1861 Si 0.7081500291824341 0.09014999866485596 0.14900000393390656
Si1862 Si 0.7081500291824341 0.09014999866485596 0.6489999890327454
Si1863 Si 0.7081500291824341 0.590149998664856 0.14900000393390656
Si1864 Si 0.7081500291824341 0.590149998664856 0.6489999890327454
Si1865 Si 0.2081499993801117 0.09014999866485596 0.35100001096725464
Si1866 Si 0.2081499993801117 0.09014999866485596 0.8510000109672546
Si1867 Si 0.2081499993801117 0.590149998664856 0.35100001096725464
Si1868 Si 0.2081499993801117 0.590149998664856 0.8510000109672546
Si1869 Si 0.7081500291824341 0.09014999866485596 0.35100001096725464
Si1870 Si 0.7081500291824341 0.09014999866485596 0.8510000109672546
Si1871 Si 0.7081500291824341 0.590149998664856 0.35100001096725464
Si1872 Si 0.7081500291824341 0.590149998664856 0.8510000109672546
Si1873 Si 0.2081499993801117 0.14900000393390656 0.09014999866485596
Si1874 Si 0.2081499993801117 0.14900000393390656 0.590149998664856
Si1875 Si 0.2081499993801117 0.6489999890327454 0.09014999866485596
Si1876 Si 0.2081499993801117 0.6489999890327454 0.590149998664856
Si1877 Si 0.7081500291824341 0.14900000393390656 0.09014999866485596
Si1878 Si 0.7081500291824341 0.14900000393390656 0.590149998664856
Si1879 Si 0.7081500291824341 0.6489999890327454 0.09014999866485596
Si1880 Si 0.7081500291824341 0.6489999890327454 0.590149998664856
Si1881 Si 0.2081499993801117 0.14900000393390656 0.40985000133514404
Si1882 Si 0.2081499993801117 0.14900000393390656 0.909850001335144
Si1883 Si 0.2081499993801117 0.6489999890327454 0.40985000133514404
Si1884 Si 0.2081499993801117 0.6489999890327454 0.909850001335144
Si1885 Si 0.7081500291824341 0.14900000393390656 0.40985000133514404
Si1886 Si 0.7081500291824341 0.14900000393390656 0.909850001335144
Si1887 Si 0.7081500291824341 0.6489999890327454 0.40985000133514404
Si1888 Si 0.7081500291824341 0.6489999890327454 0.909850001335144
Si1889 Si 0.2081499993801117 0.35100001096725464 0.09014999866485596
Si1890 Si 0.2081499993801117 0.35100001096725464 0.590149998664856
Si1891 Si 0.2081499993801117 0.8510000109672546 0.09014999866485596
Si1892 Si 0.2081499993801117 0.8510000109672546 0.590149998664856
Si1893 Si 0.7081500291824341 0.35100001096725464 0.09014999866485596
Si1894 Si 0.7081500291824341 0.35100001096725464 0.590149998664856
Si1895 Si 0.7081500291824341 0.8510000109672546 0.09014999866485596
Si1896 Si 0.7081500291824341 0.8510000109672546 0.590149998664856
Si1897 Si 0.2081499993801117 0.35100001096725464 0.40985000133514404
Si1898 Si 0.2081499993801117 0.35100001096725464 0.909850001335144
Si1899 Si 0.2081499993801117 0.8510000109672546 0.40985000133514404
Si1900 Si 0.2081499993801117 0.8510000109672546 0.909850001335144
Si1901 Si 0.7081500291824341 0.35100001096725464 0.40985000133514404
Si1902 Si 0.7081500291824341 0.35100001096725464 0.909850001335144
Si1903 Si 0.7081500291824341 0.8510000109672546 0.40985000133514404
Si1904 Si 0.7081500291824341 0.8510000109672546 0.909850001335144
Si1905 Si 0.2081499993801117 0.40985000133514404 0.14900000393390656
Si1906 Si 0.2081499993801117 0.40985000133514404 0.6489999890327454
Si1907 Si 0.2081499993801117 0.909850001335144 0.14900000393390656
Si1908 Si 0.2081499993801117 0.909850001335144 0.6489999890327454
Si1909 Si 0.7081500291824341 0.40985000133514404 0.14900000393390656
Si1910 Si 0.7081500291824341 0.40985000133514404 0.6489999890327454
Si1911 Si 0.7081500291824341 0.909850001335144 0.14900000393390656
Si1912 Si 0.7081500291824341 0.909850001335144 0.6489999890327454
Si1913 Si 0.2081499993801117 0.40985000133514404 0.35100001096725464
Si1914 Si 0.2081499993801117 0.40985000133514404 0.8510000109672546
Si1915 Si 0.2081499993801117 0.909850001335144 0.35100001096725464
Si1916 Si 0.2081499993801117 0.909850001335144 0.8510000109672546
Si1917 Si 0.7081500291824341 0.40985000133514404 0.35100001096725464
Si1918 Si 0.7081500291824341 0.40985000133514404 0.8510000109672546
Si1919 Si 0.7081500291824341 0.909850001335144 0.35100001096725464
Si1920 Si 0.7081500291824341 0.909850001335144 0.8510000109672546
Si1921 Si 0.2918500006198883 0.09014999866485596 0.14900000393390656
Si1922 Si 0.2918500006198883 0.09014999866485596 0.6489999890327454
Si1923 Si 0.2918500006198883 0.590149998664856 0.14900000393390656
Si1924 Si 0.2918500006198883 0.590149998664856 0.6489999890327454
Si1925 Si 0.7918499708175659 0.09014999866485596 0.14900000393390656
Si1926 Si 0.7918499708175659 0.09014999866485596 0.6489999890327454
Si1927 Si 0.7918499708175659 0.590149998664856 0.14900000393390656
Si1928 Si 0.7918499708175659 0.590149998664856 0.6489999890327454
Si1929 Si 0.2918500006198883 0.09014999866485596 0.35100001096725464
Si1930 Si 0.2918500006198883 0.09014999866485596 0.8510000109672546
Si1931 Si 0.2918500006198883 0.590149998664856 0.35100001096725464
Si1932 Si 0.2918500006198883 0.590149998664856 0.8510000109672546
Si1933 Si 0.7918499708175659 0.09014999866485596 0.35100001096725464
Si1934 Si 0.7918499708175659 0.09014999866485596 0.8510000109672546
Si1935 Si 0.7918499708175659 0.590149998664856 0.35100001096725464
Si1936 Si 0.7918499708175659 0.590149998664856 0.8510000109672546
Si1937 Si 0.2918500006198883 0.14900000393390656 0.09014999866485596
Si1938 Si 0.2918500006198883 0.14900000393390656 0.590149998664856
Si1939 Si 0.2918500006198883 0.6489999890327454 0.09014999866485596
Si1940 Si 0.2918500006198883 0.6489999890327454 0.590149998664856
Si1941 Si 0.7918499708175659 0.14900000393390656 0.09014999866485596
Si1942 Si 0.7918499708175659 0.14900000393390656 0.590149998664856
Si1943 Si 0.7918499708175659 0.6489999890327454 0.09014999866485596
Si1944 Si 0.7918499708175659 0.6489999890327454 0.590149998664856
Si1945 Si 0.2918500006198883 0.14900000393390656 0.40985000133514404
Si1946 Si 0.2918500006198883 0.14900000393390656 0.909850001335144
Si1947 Si 0.2918500006198883 0.6489999890327454 0.40985000133514404
Si1948 Si 0.2918500006198883 0.6489999890327454 0.909850001335144
Si1949 Si 0.7918499708175659 0.14900000393390656 0.40985000133514404
Si1950 Si 0.7918499708175659 0.14900000393390656 0.909850001335144
Si1951 Si 0.7918499708175659 0.6489999890327454 0.40985000133514404
Si1952 Si 0.7918499708175659 0.6489999890327454 0.909850001335144
Si1953 Si 0.2918500006198883 0.35100001096725464 0.09014999866485596
Si1954 Si 0.2918500006198883 0.35100001096725464 0.590149998664856
Si1955 Si 0.2918500006198883 0.8510000109672546 0.09014999866485596
Si1956 Si 0.2918500006198883 0.8510000109672546 0.590149998664856
Si1957 Si 0.7918499708175659 0.35100001096725464 0.09014999866485596
Si1958 Si 0.7918499708175659 0.35100001096725464 0.590149998664856
Si1959 Si 0.7918499708175659 0.8510000109672546 0.09014999866485596
Si1960 Si 0.7918499708175659 0.8510000109672546 0.590149998664856
Si1961 Si 0.2918500006198883 0.35100001096725464 0.40985000133514404
Si1962 Si 0.2918500006198883 0.35100001096725464 0.909850001335144
Si1963 Si 0.2918500006198883 0.8510000109672546 0.40985000133514404
Si1964 Si 0.2918500006198883 0.8510000109672546 0.909850001335144
Si1965 Si 0.7918499708175659 0.35100001096725464 0.40985000133514404
Si1966 Si 0.7918499708175659 0.35100001096725464 0.909850001335144
Si1967 Si 0.7918499708175659 0.8510000109672546 0.40985000133514404
Si1968 Si 0.7918499708175659 0.8510000109672546 0.909850001335144
Si1969 Si 0.2918500006198883 0.40985000133514404 0.14900000393390656
Si1970 Si 0.2918500006198883 0.40985000133514404 0.6489999890327454
Si1971 Si 0.2918500006198883 0.909850001335144 0.14900000393390656
Si1972 Si 0.2918500006198883 0.909850001335144 0.6489999890327454
Si1973 Si 0.7918499708175659 0.40985000133514404 0.14900000393390656
Si1974 Si 0.7918499708175659 0.40985000133514404 0.6489999890327454
Si1975 Si 0.7918499708175659 0.909850001335144 0.14900000393390656
Si1976 Si 0.7918499708175659 0.909850001335144 0.6489999890327454
Si1977 Si 0.2918500006198883 0.40985000133514404 0.35100001096725464
Si1978 Si 0.2918500006198883 0.40985000133514404 0.8510000109672546
Si1979 Si 0.2918500006198883 0.909850001335144 0.35100001096725464
Si1980 Si 0.2918500006198883 0.909850001335144 0.8510000109672546
Si1981 Si 0.7918499708175659 0.40985000133514404 0.35100001096725464
Si1982 Si 0.7918499708175659 0.40985000133514404 0.8510000109672546
Si1983 Si 0.7918499708175659 0.909850001335144 0.35100001096725464
Si1984 Si 0.7918499708175659 0.909850001335144 0.8510000109672546
Si1985 Si 0.34014999866485596 0.041850000619888306 0.10100000351667404
Si1986 Si 0.34014999866485596 0.041850000619888306 0.6010000109672546
Si1987 Si 0.34014999866485596 0.5418499708175659 0.10100000351667404
Si1988 Si 0.34014999866485596 0.5418499708175659 0.6010000109672546
Si1989 Si 0.840149998664856 0.041850000619888306 0.10100000351667404
Si1990 Si 0.840149998664856 0.041850000619888306 0.6010000109672546
Si1991 Si 0.840149998664856 0.5418499708175659 0.10100000351667404
Si1992 Si 0.840149998664856 0.5418499708175659 0.6010000109672546
Si1993 Si 0.34014999866485596 0.041850000619888306 0.39899998903274536
Si1994 Si 0.34014999866485596 0.041850000619888306 0.8989999890327454
Si1995 Si 0.34014999866485596 0.5418499708175659 0.39899998903274536
Si1996 Si 0.34014999866485596 0.5418499708175659 0.8989999890327454
Si1997 Si 0.840149998664856 0.041850000619888306 0.39899998903274536
Si1998 Si 0.840149998664856 0.041850000619888306 0.8989999890327454
Si1999 Si 0.840149998664856 0.5418499708175659 0.39899998903274536
Si2000 Si 0.840149998664856 0.5418499708175659 0.8989999890327454
Si2001 Si 0.34014999866485596 0.10100000351667404 0.041850000619888306
Si2002 Si 0.34014999866485596 0.10100000351667404 0.5418499708175659
Si2003 Si 0.34014999866485596 0.6010000109672546 0.041850000619888306
Si2004 Si 0.34014999866485596 0.6010000109672546 0.5418499708175659
Si2005 Si 0.840149998664856 0.10100000351667404 0.041850000619888306
Si2006 Si 0.840149998664856 0.10100000351667404 0.5418499708175659
Si2007 Si 0.840149998664856 0.6010000109672546 0.041850000619888306
Si2008 Si 0.840149998664856 0.6010000109672546 0.5418499708175659
Si2009 Si 0.34014999866485596 0.10100000351667404 0.4581499993801117
Si2010 Si 0.34014999866485596 0.10100000351667404 0.9581500291824341
Si2011 Si 0.34014999866485596 0.6010000109672546 0.4581499993801117
Si2012 Si 0.34014999866485596 0.6010000109672546 0.9581500291824341
Si2013 Si 0.840149998664856 0.10100000351667404 0.4581499993801117
Si2014 Si 0.840149998664856 0.10100000351667404 0.9581500291824341
Si2015 Si 0.840149998664856 0.6010000109672546 0.4581499993801117
Si2016 Si 0.840149998664856 0.6010000109672546 0.9581500291824341
Si2017 Si 0.34014999866485596 0.39899998903274536 0.041850000619888306
Si2018 Si 0.34014999866485596 0.39899998903274536 0.5418499708175659
Si2019 Si 0.34014999866485596 0.8989999890327454 0.041850000619888306
Si2020 Si 0.34014999866485596 0.8989999890327454 0.5418499708175659
Si2021 Si 0.840149998664856 0.39899998903274536 0.041850000619888306
Si2022 Si 0.840149998664856 0.39899998903274536 0.5418499708175659
Si2023 Si 0.840149998664856 0.8989999890327454 0.041850000619888306
Si2024 Si 0.840149998664856 0.8989999890327454 0.5418499708175659
Si2025 Si 0.34014999866485596 0.39899998903274536 0.4581499993801117
Si2026 Si 0.34014999866485596 0.39899998903274536 0.9581500291824341
Si2027 Si 0.34014999866485596 0.8989999890327454 0.4581499993801117
Si2028 Si 0.34014999866485596 0.8989999890327454 0.9581500291824341
Si2029 Si 0.840149998664856 0.39899998903274536 0.4581499993801117
Si2030 Si 0.840149998664856 0.39899998903274536 0.9581500291824341
Si2031 Si 0.840149998664856 0.8989999890327454 0.4581499993801117
Si2032 Si 0.840149998664856 0.8989999890327454 0.9581500291824341
Si2033 Si 0.34014999866485596 0.4581499993801117 0.10100000351667404
Si2034 Si 0.34014999866485596 0.4581499993801117 0.6010000109672546
Si2035 Si 0.34014999866485596 0.9581500291824341 0.10100000351667404
Si2036 Si 0.34014999866485596 0.9581500291824341 0.6010000109672546
Si2037 Si 0.840149998664856 0.4581499993801117 0.10100000351667404
Si2038 Si 0.840149998664856 0.4581499993801117 0.6010000109672546
Si2039 Si 0.840149998664856 0.9581500291824341 0.10100000351667404
Si2040 Si 0.840149998664856 0.9581500291824341 0.6010000109672546
Si2041 Si 0.34014999866485596 0.4581499993801117 0.39899998903274536
Si2042 Si 0.34014999866485596 0.4581499993801117 0.8989999890327454
Si2043 Si 0.34014999866485596 0.9581500291824341 0.39899998903274536
Si2044 Si 0.34014999866485596 0.9581500291824341 0.8989999890327454
Si2045 Si 0.840149998664856 0.4581499993801117 0.39899998903274536
Si2046 Si 0.840149998664856 0.4581499993801117 0.8989999890327454
Si2047 Si 0.840149998664856 0.9581500291824341 0.39899998903274536
Si2048 Si 0.840149998664856 0.9581500291824341 0.8989999890327454
Si2049 Si 0.35100001096725464 0.09014999866485596 0.2081499993801117
Si2050 Si 0.35100001096725464 0.09014999866485596 0.7081500291824341
Si2051 Si 0.35100001096725464 0.590149998664856 0.2081499993801117
Si2052 Si 0.35100001096725464 0.590149998664856 0.7081500291824341
Si2053 Si 0.8510000109672546 0.09014999866485596 0.2081499993801117
Si2054 Si 0.8510000109672546 0.09014999866485596 0.7081500291824341
Si2055 Si 0.8510000109672546 0.590149998664856 0.2081499993801117
Si2056 Si 0.8510000109672546 0.590149998664856 0.7081500291824341
Si2057 Si 0.35100001096725464 0.09014999866485596 0.2918500006198883
Si2058 Si 0.35100001096725464 0.09014999866485596 0.7918499708175659
Si2059 Si 0.35100001096725464 0.590149998664856 0.2918500006198883
Si2060 Si 0.35100001096725464 0.590149998664856 0.7918499708175659
Si2061 Si 0.8510000109672546 0.09014999866485596 0.2918500006198883
Si2062 Si 0.8510000109672546 0.09014999866485596 0.7918499708175659
Si2063 Si 0.8510000109672546 0.590149998664856 0.2918500006198883
Si2064 Si 0.8510000109672546 0.590149998664856 0.7918499708175659
Si2065 Si 0.35100001096725464 0.2081499993801117 0.09014999866485596
Si2066 Si 0.35100001096725464 0.2081499993801117 0.590149998664856
Si2067 Si 0.35100001096725464 0.7081500291824341 0.09014999866485596
Si2068 Si 0.35100001096725464 0.7081500291824341 0.590149998664856
Si2069 Si 0.8510000109672546 0.2081499993801117 0.09014999866485596
Si2070 Si 0.8510000109672546 0.2081499993801117 0.590149998664856
Si2071 Si 0.8510000109672546 0.7081500291824341 0.09014999866485596
Si2072 Si 0.8510000109672546 0.7081500291824341 0.590149998664856
Si2073 Si 0.35100001096725464 0.2081499993801117 0.40985000133514404
Si2074 Si 0.35100001096725464 0.2081499993801117 0.909850001335144
Si2075 Si 0.35100001096725464 0.7081500291824341 0.40985000133514404
Si2076 Si 0.35100001096725464 0.7081500291824341 0.909850001335144
Si2077 Si 0.8510000109672546 0.2081499993801117 0.40985000133514404
Si2078 Si 0.8510000109672546 0.2081499993801117 0.909850001335144
Si2079 Si 0.8510000109672546 0.7081500291824341 0.40985000133514404
Si2080 Si 0.8510000109672546 0.7081500291824341 0.909850001335144
Si2081 Si 0.35100001096725464 0.2918500006198883 0.09014999866485596
Si2082 Si 0.35100001096725464 0.2918500006198883 0.590149998664856
Si2083 Si 0.35100001096725464 0.7918499708175659 0.09014999866485596
Si2084 Si 0.35100001096725464 0.7918499708175659 0.590149998664856
Si2085 Si 0.8510000109672546 0.2918500006198883 0.09014999866485596
Si2086 Si 0.8510000109672546 0.2918500006198883 0.590149998664856
Si2087 Si 0.8510000109672546 0.7918499708175659 0.09014999866485596
Si2088 Si 0.8510000109672546 0.7918499708175659 0.590149998664856
Si2089 Si 0.35100001096725464 0.2918500006198883 0.40985000133514404
Si2090 Si 0.35100001096725464 0.2918500006198883 0.909850001335144
Si2091 Si 0.35100001096725464 0.7918499708175659 0.40985000133514404
Si2092 Si 0.35100001096725464 0.7918499708175659 0.909850001335144
Si2093 Si 0.8510000109672546 0.2918500006198883 0.40985000133514404
Si2094 Si 0.8510000109672546 0.2918500006198883 0.909850001335144
Si2095 Si 0.8510000109672546 0.7918499708175659 0.40985000133514404
Si2096 Si 0.8510000109672546 0.7918499708175659 0.909850001335144
Si2097 Si 0.35100001096725464 0.40985000133514404 0.2081499993801117
Si2098 Si 0.35100001096725464 0.40985000133514404 0.7081500291824341
Si2099 Si 0.35100001096725464 0.909850001335144 0.2081499993801117
Si2100 Si 0.35100001096725464 0.909850001335144 0.7081500291824341
Si2101 Si 0.8510000109672546 0.40985000133514404 0.2081499993801117
Si2102 Si 0.8510000109672546 0.40985000133514404 0.7081500291824341
Si2103 Si 0.8510000109672546 0.909850001335144 0.2081499993801117
Si2104 Si 0.8510000109672546 0.909850001335144 0.7081500291824341
Si2105 Si 0.35100001096725464 0.40985000133514404 0.2918500006198883
Si2106 Si 0.35100001096725464 0.40985000133514404 0.7918499708175659
Si2107 Si 0.35100001096725464 0.909850001335144 0.2918500006198883
Si2108 Si 0.35100001096725464 0.909850001335144 0.7918499708175659
Si2109 Si 0.8510000109672546 0.40985000133514404 0.2918500006198883
Si2110 Si 0.8510000109672546 0.40985000133514404 0.7918499708175659
Si2111 Si 0.8510000109672546 0.909850001335144 0.2918500006198883
Si2112 Si 0.8510000109672546 0.909850001335144 0.7918499708175659
Si2113 Si 0.39899998903274536 0.041850000619888306 0.15985000133514404
Si2114 Si 0.39899998903274536 0.041850000619888306 0.659850001335144
Si2115 Si 0.39899998903274536 0.5418499708175659 0.15985000133514404
Si2116 Si 0.39899998903274536 0.5418499708175659 0.659850001335144
Si2117 Si 0.8989999890327454 0.041850000619888306 0.15985000133514404
Si2118 Si 0.8989999890327454 0.041850000619888306 0.659850001335144
Si2119 Si 0.8989999890327454 0.5418499708175659 0.15985000133514404
Si2120 Si 0.8989999890327454 0.5418499708175659 0.659850001335144
Si2121 Si 0.39899998903274536 0.041850000619888306 0.34014999866485596
Si2122 Si 0.39899998903274536 0.041850000619888306 0.840149998664856
Si2123 Si 0.39899998903274536 0.5418499708175659 0.34014999866485596
Si2124 Si 0.39899998903274536 0.5418499708175659 0.840149998664856
Si2125 Si 0.8989999890327454 0.041850000619888306 0.34014999866485596
Si2126 Si 0.8989999890327454 0.041850000619888306 0.840149998664856
Si2127 Si 0.8989999890327454 0.5418499708175659 0.34014999866485596
Si2128 Si 0.8989999890327454 0.5418499708175659 0.840149998664856
Si2129 Si 0.39899998903274536 0.15985000133514404 0.041850000619888306
Si2130 Si 0.39899998903274536 0.15985000133514404 0.5418499708175659
Si2131 Si 0.39899998903274536 0.659850001335144 0.041850000619888306
Si2132 Si 0.39899998903274536 0.659850001335144 0.5418499708175659
Si2133 Si 0.8989999890327454 0.15985000133514404 0.041850000619888306
Si2134 Si 0.8989999890327454 0.15985000133514404 0.5418499708175659
Si2135 Si 0.8989999890327454 0.659850001335144 0.041850000619888306
Si2136 Si 0.8989999890327454 0.659850001335144 0.5418499708175659
Si2137 Si 0.39899998903274536 0.15985000133514404 0.4581499993801117
Si2138 Si 0.39899998903274536 0.15985000133514404 0.9581500291824341
Si2139 Si 0.39899998903274536 0.659850001335144 0.4581499993801117
Si2140 Si 0.39899998903274536 0.659850001335144 0.9581500291824341
Si2141 Si 0.8989999890327454 0.15985000133514404 0.4581499993801117
Si2142 Si 0.8989999890327454 0.15985000133514404 0.9581500291824341
Si2143 Si 0.8989999890327454 0.659850001335144 0.4581499993801117
Si2144 Si 0.8989999890327454 0.659850001335144 0.9581500291824341
Si2145 Si 0.39899998903274536 0.34014999866485596 0.041850000619888306
Si2146 Si 0.39899998903274536 0.34014999866485596 0.5418499708175659
Si2147 Si 0.39899998903274536 0.840149998664856 0.041850000619888306
Si2148 Si 0.39899998903274536 0.840149998664856 0.5418499708175659
Si2149 Si 0.8989999890327454 0.34014999866485596 0.041850000619888306
Si2150 Si 0.8989999890327454 0.34014999866485596 0.5418499708175659
Si2151 Si 0.8989999890327454 0.840149998664856 0.041850000619888306
Si2152 Si 0.8989999890327454 0.840149998664856 0.5418499708175659
Si2153 Si 0.39899998903274536 0.34014999866485596 0.4581499993801117
Si2154 Si 0.39899998903274536 0.34014999866485596 0.9581500291824341
Si2155 Si 0.39899998903274536 0.840149998664856 0.4581499993801117
Si2156 Si 0.39899998903274536 0.840149998664856 0.9581500291824341
Si2157 Si 0.8989999890327454 0.34014999866485596 0.4581499993801117
Si2158 Si 0.8989999890327454 0.34014999866485596 0.9581500291824341
Si2159 Si 0.8989999890327454 0.840149998664856 0.4581499993801117
Si2160 Si 0.8989999890327454 0.840149998664856 0.9581500291824341
Si2161 Si 0.39899998903274536 0.4581499993801117 0.15985000133514404
Si2162 Si 0.39899998903274536 0.4581499993801117 0.659850001335144
Si2163 Si 0.39899998903274536 0.9581500291824341 0.15985000133514404
Si2164 Si 0.39899998903274536 0.9581500291824341 0.659850001335144
Si2165 Si 0.8989999890327454 0.4581499993801117 0.15985000133514404
Si2166 Si 0.8989999890327454 0.4581499993801117 0.659850001335144
Si2167 Si 0.8989999890327454 0.9581500291824341 0.15985000133514404
Si2168 Si 0.8989999890327454 0.9581500291824341 0.659850001335144
Si2169 Si 0.39899998903274536 0.4581499993801117 0.34014999866485596
Si2170 Si 0.39899998903274536 0.4581499993801117 0.840149998664856
Si2171 Si 0.39899998903274536 0.9581500291824341 0.34014999866485596
Si2172 Si 0.39899998903274536 0.9581500291824341 0.840149998664856
Si2173 Si 0.8989999890327454 0.4581499993801117 0.34014999866485596
Si2174 Si 0.8989999890327454 0.4581499993801117 0.840149998664856
Si2175 Si 0.8989999890327454 0.9581500291824341 0.34014999866485596
Si2176 Si 0.8989999890327454 0.9581500291824341 0.840149998664856
Si2177 Si 0.40985000133514404 0.14900000393390656 0.2081499993801117
Si2178 Si 0.40985000133514404 0.14900000393390656 0.7081500291824341
Si2179 Si 0.40985000133514404 0.6489999890327454 0.2081499993801117
Si2180 Si 0.40985000133514404 0.6489999890327454 0.7081500291824341
Si2181 Si 0.909850001335144 0.14900000393390656 0.2081499993801117
Si2182 Si 0.909850001335144 0.14900000393390656 0.7081500291824341
Si2183 Si 0.909850001335144 0.6489999890327454 0.2081499993801117
Si2184 Si 0.909850001335144 0.6489999890327454 0.7081500291824341
Si2185 Si 0.40985000133514404 0.14900000393390656 0.2918500006198883
Si2186 Si 0.40985000133514404 0.14900000393390656 0.7918499708175659
Si2187 Si 0.40985000133514404 0.6489999890327454 0.2918500006198883
Si2188 Si 0.40985000133514404 0.6489999890327454 0.7918499708175659
Si2189 Si 0.909850001335144 0.14900000393390656 0.2918500006198883
Si2190 Si 0.909850001335144 0.14900000393390656 0.7918499708175659
Si2191 Si 0.909850001335144 0.6489999890327454 0.2918500006198883
Si2192 Si 0.909850001335144 0.6489999890327454 0.7918499708175659
Si2193 Si 0.40985000133514404 0.2081499993801117 0.14900000393390656
Si2194 Si 0.40985000133514404 0.2081499993801117 0.6489999890327454
Si2195 Si 0.40985000133514404 0.7081500291824341 0.14900000393390656
Si2196 Si 0.40985000133514404 0.7081500291824341 0.6489999890327454
Si2197 Si 0.909850001335144 0.2081499993801117 0.14900000393390656
Si2198 Si 0.909850001335144 0.2081499993801117 0.6489999890327454
Si2199 Si 0.909850001335144 0.7081500291824341 0.14900000393390656
Si2200 Si 0.909850001335144 0.7081500291824341 0.6489999890327454
Si2201 Si 0.40985000133514404 0.2081499993801117 0.35100001096725464
Si2202 Si 0.40985000133514404 0.2081499993801117 0.8510000109672546
Si2203 Si 0.40985000133514404 0.7081500291824341 0.35100001096725464
Si2204 Si 0.40985000133514404 0.7081500291824341 0.8510000109672546
Si2205 Si 0.909850001335144 0.2081499993801117 0.35100001096725464
Si2206 Si 0.909850001335144 0.2081499993801117 0.8510000109672546
Si2207 Si 0.909850001335144 0.7081500291824341 0.35100001096725464
Si2208 Si 0.909850001335144 0.7081500291824341 0.8510000109672546
Si2209 Si 0.40985000133514404 0.2918500006198883 0.14900000393390656
Si2210 Si 0.40985000133514404 0.2918500006198883 0.6489999890327454
Si2211 Si 0.40985000133514404 0.7918499708175659 0.14900000393390656
Si2212 Si 0.40985000133514404 0.7918499708175659 0.6489999890327454
Si2213 Si 0.909850001335144 0.2918500006198883 0.14900000393390656
Si2214 Si 0.909850001335144 0.2918500006198883 0.6489999890327454
Si2215 Si 0.909850001335144 0.7918499708175659 0.14900000393390656
Si2216 Si 0.909850001335144 0.7918499708175659 0.6489999890327454
Si2217 Si 0.40985000133514404 0.2918500006198883 0.35100001096725464
Si2218 Si 0.40985000133514404 0.2918500006198883 0.8510000109672546
Si2219 Si 0.40985000133514404 0.7918499708175659 0.35100001096725464
Si2220 Si 0.40985000133514404 0.7918499708175659 0.8510000109672546
Si2221 Si 0.909850001335144 0.2918500006198883 0.35100001096725464
Si2222 Si 0.909850001335144 0.2918500006198883 0.8510000109672546
Si2223 Si 0.909850001335144 0.7918499708175659 0.35100001096725464
Si2224 Si 0.909850001335144 0.7918499708175659 0.8510000109672546
Si2225 Si 0.40985000133514404 0.35100001096725464 0.2081499993801117
Si2226 Si 0.40985000133514404 0.35100001096725464 0.7081500291824341
Si2227 Si 0.40985000133514404 0.8510000109672546 0.2081499993801117
Si2228 Si 0.40985000133514404 0.8510000109672546 0.7081500291824341
Si2229 Si 0.909850001335144 0.35100001096725464 0.2081499993801117
Si2230 Si 0.909850001335144 0.35100001096725464 0.7081500291824341
Si2231 Si 0.909850001335144 0.8510000109672546 0.2081499993801117
Si2232 Si 0.909850001335144 0.8510000109672546 0.7081500291824341
Si2233 Si 0.40985000133514404 0.35100001096725464 0.2918500006198883
Si2234 Si 0.40985000133514404 0.35100001096725464 0.7918499708175659
Si2235 Si 0.40985000133514404 0.8510000109672546 0.2918500006198883
Si2236 Si 0.40985000133514404 0.8510000109672546 0.7918499708175659
Si2237 Si 0.909850001335144 0.35100001096725464 0.2918500006198883
Si2238 Si 0.909850001335144 0.35100001096725464 0.7918499708175659
Si2239 Si 0.909850001335144 0.8510000109672546 0.2918500006198883
Si2240 Si 0.909850001335144 0.8510000109672546 0.7918499708175659
Si2241 Si 0.4581499993801117 0.10100000351667404 0.15985000133514404
Si2242 Si 0.4581499993801117 0.10100000351667404 0.659850001335144
Si2243 Si 0.4581499993801117 0.6010000109672546 0.15985000133514404
Si2244 Si 0.4581499993801117 0.6010000109672546 0.659850001335144
Si2245 Si 0.9581500291824341 0.10100000351667404 0.15985000133514404
Si2246 Si 0.9581500291824341 0.10100000351667404 0.659850001335144
Si2247 Si 0.9581500291824341 0.6010000109672546 0.15985000133514404
Si2248 Si 0.9581500291824341 0.6010000109672546 0.659850001335144
Si2249 Si 0.4581499993801117 0.10100000351667404 0.34014999866485596
Si2250 Si 0.4581499993801117 0.10100000351667404 0.840149998664856
Si2251 Si 0.4581499993801117 0.6010000109672546 0.34014999866485596
Si2252 Si 0.4581499993801117 0.6010000109672546 0.840149998664856
Si2253 Si 0.9581500291824341 0.10100000351667404 0.34014999866485596
Si2254 Si 0.9581500291824341 0.10100000351667404 0.840149998664856
Si2255 Si 0.9581500291824341 0.6010000109672546 0.34014999866485596
Si2256 Si 0.9581500291824341 0.6010000109672546 0.840149998664856
Si2257 Si 0.4581499993801117 0.15985000133514404 0.10100000351667404
Si2258 Si 0.4581499993801117 0.15985000133514404 0.6010000109672546
Si2259 Si 0.4581499993801117 0.659850001335144 0.10100000351667404
Si2260 Si 0.4581499993801117 0.659850001335144 0.6010000109672546
Si2261 Si 0.9581500291824341 0.15985000133514404 0.10100000351667404
Si2262 Si 0.9581500291824341 0.15985000133514404 0.6010000109672546
Si2263 Si 0.9581500291824341 0.659850001335144 0.10100000351667404
Si2264 Si 0.9581500291824341 0.659850001335144 0.6010000109672546
Si2265 Si 0.4581499993801117 0.15985000133514404 0.39899998903274536
Si2266 Si 0.4581499993801117 0.15985000133514404 0.8989999890327454
Si2267 Si 0.4581499993801117 0.659850001335144 0.39899998903274536
Si2268 Si 0.4581499993801117 0.659850001335144 0.8989999890327454
Si2269 Si 0.9581500291824341 0.15985000133514404 0.39899998903274536
Si2270 Si 0.9581500291824341 0.15985000133514404 0.8989999890327454
Si2271 Si 0.9581500291824341 0.659850001335144 0.39899998903274536
Si2272 Si 0.9581500291824341 0.659850001335144 0.8989999890327454
Si2273 Si 0.4581499993801117 0.34014999866485596 0.10100000351667404
Si2274 Si 0.4581499993801117 0.34014999866485596 0.6010000109672546
Si2275 Si 0.4581499993801117 0.840149998664856 0.10100000351667404
Si2276 Si 0.4581499993801117 0.840149998664856 0.6010000109672546
Si2277 Si 0.9581500291824341 0.34014999866485596 0.10100000351667404
Si2278 Si 0.9581500291824341 0.34014999866485596 0.6010000109672546
Si2279 Si 0.9581500291824341 0.840149998664856 0.10100000351667404
Si2280 Si 0.9581500291824341 0.840149998664856 0.6010000109672546
Si2281 Si 0.4581499993801117 0.34014999866485596 0.39899998903274536
Si2282 Si 0.4581499993801117 0.34014999866485596 0.8989999890327454
Si2283 Si 0.4581499993801117 0.840149998664856 0.39899998903274536
Si2284 Si 0.4581499993801117 0.840149998664856 0.8989999890327454
Si2285 Si 0.9581500291824341 0.34014999866485596 0.39899998903274536
Si2286 Si 0.9581500291824341 0.34014999866485596 0.8989999890327454
Si2287 Si 0.9581500291824341 0.840149998664856 0.39899998903274536
Si2288 Si 0.9581500291824341 0.840149998664856 0.8989999890327454
Si2289 Si 0.4581499993801117 0.39899998903274536 0.15985000133514404
Si2290 Si 0.4581499993801117 0.39899998903274536 0.659850001335144
Si2291 Si 0.4581499993801117 0.8989999890327454 0.15985000133514404
Si2292 Si 0.4581499993801117 0.8989999890327454 0.659850001335144
Si2293 Si 0.9581500291824341 0.39899998903274536 0.15985000133514404
Si2294 Si 0.9581500291824341 0.39899998903274536 0.659850001335144
Si2295 Si 0.9581500291824341 0.8989999890327454 0.15985000133514404
Si2296 Si 0.9581500291824341 0.8989999890327454 0.659850001335144
Si2297 Si 0.4581499993801117 0.39899998903274536 0.34014999866485596
Si2298 Si 0.4581499993801117 0.39899998903274536 0.840149998664856
Si2299 Si 0.4581499993801117 0.8989999890327454 0.34014999866485596
Si2300 Si 0.4581499993801117 0.8989999890327454 0.840149998664856
Si2301 Si 0.9581500291824341 0.39899998903274536 0.34014999866485596
Si2302 Si 0.9581500291824341 0.39899998903274536 0.840149998664856
Si2303 Si 0.9581500291824341 0.8989999890327454 0.34014999866485596
Si2304 Si 0.9581500291824341 0.8989999890327454 0.840149998664856
