data_image0
_symmetry_space_group_name_H-M    "P 1"
_symmetry_int_tables_number       1

loop_
 _symmetry_equiv_pos_as_xyz
 'x, y, z'

_cell_length_a	35.409000000000006
_cell_length_b	30.834000000000003
_cell_length_c	29.967000000000002
_cell_angle_alpha	90.0000
_cell_angle_beta	90.0000
_cell_angle_gamma	90.0000

loop_
 _atom_site_label
 _atom_site_type_symbol
 _atom_site_fract_x
 _atom_site_fract_y
 _atom_site_fract_z
O1 O 0.026333333924412727 0.13650000095367432 0.05236667022109032
O2 O 0.026333333924412727 0.13650000095367432 0.385699987411499
O3 O 0.026333333924412727 0.13650000095367432 0.7190333008766174
O4 O 0.026333333924412727 0.4698333442211151 0.05236667022109032
O5 O 0.026333333924412727 0.4698333442211151 0.385699987411499
O6 O 0.026333333924412727 0.4698333442211151 0.7190333008766174
O7 O 0.026333333924412727 0.8031666278839111 0.05236667022109032
O8 O 0.026333333924412727 0.8031666278839111 0.385699987411499
O9 O 0.026333333924412727 0.8031666278839111 0.7190333008766174
O10 O 0.3596666753292084 0.13650000095367432 0.05236667022109032
O11 O 0.3596666753292084 0.13650000095367432 0.385699987411499
O12 O 0.3596666753292084 0.13650000095367432 0.7190333008766174
O13 O 0.3596666753292084 0.4698333442211151 0.05236667022109032
O14 O 0.3596666753292084 0.4698333442211151 0.385699987411499
O15 O 0.3596666753292084 0.4698333442211151 0.7190333008766174
O16 O 0.3596666753292084 0.8031666278839111 0.05236667022109032
O17 O 0.3596666753292084 0.8031666278839111 0.385699987411499
O18 O 0.3596666753292084 0.8031666278839111 0.7190333008766174
O19 O 0.6930000185966492 0.13650000095367432 0.05236667022109032
O20 O 0.6930000185966492 0.13650000095367432 0.385699987411499
O21 O 0.6930000185966492 0.13650000095367432 0.7190333008766174
O22 O 0.6930000185966492 0.4698333442211151 0.05236667022109032
O23 O 0.6930000185966492 0.4698333442211151 0.385699987411499
O24 O 0.6930000185966492 0.4698333442211151 0.7190333008766174
O25 O 0.6930000185966492 0.8031666278839111 0.05236667022109032
O26 O 0.6930000185966492 0.8031666278839111 0.385699987411499
O27 O 0.6930000185966492 0.8031666278839111 0.7190333008766174
O28 O 0.026333333924412727 0.13650000095367432 0.2809666693210602
O29 O 0.026333333924412727 0.13650000095367432 0.614300012588501
O30 O 0.026333333924412727 0.13650000095367432 0.9476333260536194
O31 O 0.026333333924412727 0.4698333442211151 0.2809666693210602
O32 O 0.026333333924412727 0.4698333442211151 0.614300012588501
O33 O 0.026333333924412727 0.4698333442211151 0.9476333260536194
O34 O 0.026333333924412727 0.8031666278839111 0.2809666693210602
O35 O 0.026333333924412727 0.8031666278839111 0.614300012588501
O36 O 0.026333333924412727 0.8031666278839111 0.9476333260536194
O37 O 0.3596666753292084 0.13650000095367432 0.2809666693210602
O38 O 0.3596666753292084 0.13650000095367432 0.614300012588501
O39 O 0.3596666753292084 0.13650000095367432 0.9476333260536194
O40 O 0.3596666753292084 0.4698333442211151 0.2809666693210602
O41 O 0.3596666753292084 0.4698333442211151 0.614300012588501
O42 O 0.3596666753292084 0.4698333442211151 0.9476333260536194
O43 O 0.3596666753292084 0.8031666278839111 0.2809666693210602
O44 O 0.3596666753292084 0.8031666278839111 0.614300012588501
O45 O 0.3596666753292084 0.8031666278839111 0.9476333260536194
O46 O 0.6930000185966492 0.13650000095367432 0.2809666693210602
O47 O 0.6930000185966492 0.13650000095367432 0.614300012588501
O48 O 0.6930000185966492 0.13650000095367432 0.9476333260536194
O49 O 0.6930000185966492 0.4698333442211151 0.2809666693210602
O50 O 0.6930000185966492 0.4698333442211151 0.614300012588501
O51 O 0.6930000185966492 0.4698333442211151 0.9476333260536194
O52 O 0.6930000185966492 0.8031666278839111 0.2809666693210602
O53 O 0.6930000185966492 0.8031666278839111 0.614300012588501
O54 O 0.6930000185966492 0.8031666278839111 0.9476333260536194
O55 O 0.026333333924412727 0.19683332741260529 0.11430000513792038
O56 O 0.026333333924412727 0.19683332741260529 0.4476333558559418
O57 O 0.026333333924412727 0.19683332741260529 0.7809666991233826
O58 O 0.026333333924412727 0.5301666855812073 0.11430000513792038
O59 O 0.026333333924412727 0.5301666855812073 0.4476333558559418
O60 O 0.026333333924412727 0.5301666855812073 0.7809666991233826
O61 O 0.026333333924412727 0.8635000586509705 0.11430000513792038
O62 O 0.026333333924412727 0.8635000586509705 0.4476333558559418
O63 O 0.026333333924412727 0.8635000586509705 0.7809666991233826
O64 O 0.3596666753292084 0.19683332741260529 0.11430000513792038
O65 O 0.3596666753292084 0.19683332741260529 0.4476333558559418
O66 O 0.3596666753292084 0.19683332741260529 0.7809666991233826
O67 O 0.3596666753292084 0.5301666855812073 0.11430000513792038
O68 O 0.3596666753292084 0.5301666855812073 0.4476333558559418
O69 O 0.3596666753292084 0.5301666855812073 0.7809666991233826
O70 O 0.3596666753292084 0.8635000586509705 0.11430000513792038
O71 O 0.3596666753292084 0.8635000586509705 0.4476333558559418
O72 O 0.3596666753292084 0.8635000586509705 0.7809666991233826
O73 O 0.6930000185966492 0.19683332741260529 0.11430000513792038
O74 O 0.6930000185966492 0.19683332741260529 0.4476333558559418
O75 O 0.6930000185966492 0.19683332741260529 0.7809666991233826
O76 O 0.6930000185966492 0.5301666855812073 0.11430000513792038
O77 O 0.6930000185966492 0.5301666855812073 0.4476333558559418
O78 O 0.6930000185966492 0.5301666855812073 0.7809666991233826
O79 O 0.6930000185966492 0.8635000586509705 0.11430000513792038
O80 O 0.6930000185966492 0.8635000586509705 0.4476333558559418
O81 O 0.6930000185966492 0.8635000586509705 0.7809666991233826
O82 O 0.026333333924412727 0.19683332741260529 0.219033345580101
O83 O 0.026333333924412727 0.19683332741260529 0.5523666739463806
O84 O 0.026333333924412727 0.19683332741260529 0.885699987411499
O85 O 0.026333333924412727 0.5301666855812073 0.219033345580101
O86 O 0.026333333924412727 0.5301666855812073 0.5523666739463806
O87 O 0.026333333924412727 0.5301666855812073 0.885699987411499
O88 O 0.026333333924412727 0.8635000586509705 0.219033345580101
O89 O 0.026333333924412727 0.8635000586509705 0.5523666739463806
O90 O 0.026333333924412727 0.8635000586509705 0.885699987411499
O91 O 0.3596666753292084 0.19683332741260529 0.219033345580101
O92 O 0.3596666753292084 0.19683332741260529 0.5523666739463806
O93 O 0.3596666753292084 0.19683332741260529 0.885699987411499
O94 O 0.3596666753292084 0.5301666855812073 0.219033345580101
O95 O 0.3596666753292084 0.5301666855812073 0.5523666739463806
O96 O 0.3596666753292084 0.5301666855812073 0.885699987411499
O97 O 0.3596666753292084 0.8635000586509705 0.219033345580101
O98 O 0.3596666753292084 0.8635000586509705 0.5523666739463806
O99 O 0.3596666753292084 0.8635000586509705 0.885699987411499
O100 O 0.6930000185966492 0.19683332741260529 0.219033345580101
O101 O 0.6930000185966492 0.19683332741260529 0.5523666739463806
O102 O 0.6930000185966492 0.19683332741260529 0.885699987411499
O103 O 0.6930000185966492 0.5301666855812073 0.219033345580101
O104 O 0.6930000185966492 0.5301666855812073 0.5523666739463806
O105 O 0.6930000185966492 0.5301666855812073 0.885699987411499
O106 O 0.6930000185966492 0.8635000586509705 0.219033345580101
O107 O 0.6930000185966492 0.8635000586509705 0.5523666739463806
O108 O 0.6930000185966492 0.8635000586509705 0.885699987411499
O109 O 0.07643333822488785 0.0 0.0833333358168602
O110 O 0.07643333822488785 0.0 0.4166666567325592
O111 O 0.07643333822488785 0.0 0.75
O112 O 0.07643333822488785 0.3333333432674408 0.0833333358168602
O113 O 0.07643333822488785 0.3333333432674408 0.4166666567325592
O114 O 0.07643333822488785 0.3333333432674408 0.75
O115 O 0.07643333822488785 0.6666666865348816 0.0833333358168602
O116 O 0.07643333822488785 0.6666666865348816 0.4166666567325592
O117 O 0.07643333822488785 0.6666666865348816 0.75
O118 O 0.40976667404174805 0.0 0.0833333358168602
O119 O 0.40976667404174805 0.0 0.4166666567325592
O120 O 0.40976667404174805 0.0 0.75
O121 O 0.40976667404174805 0.3333333432674408 0.0833333358168602
O122 O 0.40976667404174805 0.3333333432674408 0.4166666567325592
O123 O 0.40976667404174805 0.3333333432674408 0.75
O124 O 0.40976667404174805 0.6666666865348816 0.0833333358168602
O125 O 0.40976667404174805 0.6666666865348816 0.4166666567325592
O126 O 0.40976667404174805 0.6666666865348816 0.75
O127 O 0.7430999875068665 0.0 0.0833333358168602
O128 O 0.7430999875068665 0.0 0.4166666567325592
O129 O 0.7430999875068665 0.0 0.75
O130 O 0.7430999875068665 0.3333333432674408 0.0833333358168602
O131 O 0.7430999875068665 0.3333333432674408 0.4166666567325592
O132 O 0.7430999875068665 0.3333333432674408 0.75
O133 O 0.7430999875068665 0.6666666865348816 0.0833333358168602
O134 O 0.7430999875068665 0.6666666865348816 0.4166666567325592
O135 O 0.7430999875068665 0.6666666865348816 0.75
O136 O 0.07643333822488785 0.0 0.25
O137 O 0.07643333822488785 0.0 0.5833333134651184
O138 O 0.07643333822488785 0.0 0.9166666865348816
O139 O 0.07643333822488785 0.3333333432674408 0.25
O140 O 0.07643333822488785 0.3333333432674408 0.5833333134651184
O141 O 0.07643333822488785 0.3333333432674408 0.9166666865348816
O142 O 0.07643333822488785 0.6666666865348816 0.25
O143 O 0.07643333822488785 0.6666666865348816 0.5833333134651184
O144 O 0.07643333822488785 0.6666666865348816 0.9166666865348816
O145 O 0.40976667404174805 0.0 0.25
O146 O 0.40976667404174805 0.0 0.5833333134651184
O147 O 0.40976667404174805 0.0 0.9166666865348816
O148 O 0.40976667404174805 0.3333333432674408 0.25
O149 O 0.40976667404174805 0.3333333432674408 0.5833333134651184
O150 O 0.40976667404174805 0.3333333432674408 0.9166666865348816
O151 O 0.40976667404174805 0.6666666865348816 0.25
O152 O 0.40976667404174805 0.6666666865348816 0.5833333134651184
O153 O 0.40976667404174805 0.6666666865348816 0.9166666865348816
O154 O 0.7430999875068665 0.0 0.25
O155 O 0.7430999875068665 0.0 0.5833333134651184
O156 O 0.7430999875068665 0.0 0.9166666865348816
O157 O 0.7430999875068665 0.3333333432674408 0.25
O158 O 0.7430999875068665 0.3333333432674408 0.5833333134651184
O159 O 0.7430999875068665 0.3333333432674408 0.9166666865348816
O160 O 0.7430999875068665 0.6666666865348816 0.25
O161 O 0.7430999875068665 0.6666666865348816 0.5833333134651184
O162 O 0.7430999875068665 0.6666666865348816 0.9166666865348816
O163 O 0.08083333820104599 0.02709999866783619 0.0
O164 O 0.08083333820104599 0.02709999866783619 0.3333333432674408
O165 O 0.08083333820104599 0.02709999866783619 0.6666666865348816
O166 O 0.08083333820104599 0.36043334007263184 0.0
O167 O 0.08083333820104599 0.36043334007263184 0.3333333432674408
O168 O 0.08083333820104599 0.36043334007263184 0.6666666865348816
O169 O 0.08083333820104599 0.6937666535377502 0.0
O170 O 0.08083333820104599 0.6937666535377502 0.3333333432674408
O171 O 0.08083333820104599 0.6937666535377502 0.6666666865348816
O172 O 0.414166659116745 0.02709999866783619 0.0
O173 O 0.414166659116745 0.02709999866783619 0.3333333432674408
O174 O 0.414166659116745 0.02709999866783619 0.6666666865348816
O175 O 0.414166659116745 0.36043334007263184 0.0
O176 O 0.414166659116745 0.36043334007263184 0.3333333432674408
O177 O 0.414166659116745 0.36043334007263184 0.6666666865348816
O178 O 0.414166659116745 0.6937666535377502 0.0
O179 O 0.414166659116745 0.6937666535377502 0.3333333432674408
O180 O 0.414166659116745 0.6937666535377502 0.6666666865348816
O181 O 0.7475000023841858 0.02709999866783619 0.0
O182 O 0.7475000023841858 0.02709999866783619 0.3333333432674408
O183 O 0.7475000023841858 0.02709999866783619 0.6666666865348816
O184 O 0.7475000023841858 0.36043334007263184 0.0
O185 O 0.7475000023841858 0.36043334007263184 0.3333333432674408
O186 O 0.7475000023841858 0.36043334007263184 0.6666666865348816
O187 O 0.7475000023841858 0.6937666535377502 0.0
O188 O 0.7475000023841858 0.6937666535377502 0.3333333432674408
O189 O 0.7475000023841858 0.6937666535377502 0.6666666865348816
O190 O 0.08083333820104599 0.30623331665992737 0.1666666716337204
O191 O 0.08083333820104599 0.30623331665992737 0.5
O192 O 0.08083333820104599 0.30623331665992737 0.8333333134651184
O193 O 0.08083333820104599 0.6395666599273682 0.1666666716337204
O194 O 0.08083333820104599 0.6395666599273682 0.5
O195 O 0.08083333820104599 0.6395666599273682 0.8333333134651184
O196 O 0.08083333820104599 0.9728999733924866 0.1666666716337204
O197 O 0.08083333820104599 0.9728999733924866 0.5
O198 O 0.08083333820104599 0.9728999733924866 0.8333333134651184
O199 O 0.414166659116745 0.30623331665992737 0.1666666716337204
O200 O 0.414166659116745 0.30623331665992737 0.5
O201 O 0.414166659116745 0.30623331665992737 0.8333333134651184
O202 O 0.414166659116745 0.6395666599273682 0.1666666716337204
O203 O 0.414166659116745 0.6395666599273682 0.5
O204 O 0.414166659116745 0.6395666599273682 0.8333333134651184
O205 O 0.414166659116745 0.9728999733924866 0.1666666716337204
O206 O 0.414166659116745 0.9728999733924866 0.5
O207 O 0.414166659116745 0.9728999733924866 0.8333333134651184
O208 O 0.7475000023841858 0.30623331665992737 0.1666666716337204
O209 O 0.7475000023841858 0.30623331665992737 0.5
O210 O 0.7475000023841858 0.30623331665992737 0.8333333134651184
O211 O 0.7475000023841858 0.6395666599273682 0.1666666716337204
O212 O 0.7475000023841858 0.6395666599273682 0.5
O213 O 0.7475000023841858 0.6395666599273682 0.8333333134651184
O214 O 0.7475000023841858 0.9728999733924866 0.1666666716337204
O215 O 0.7475000023841858 0.9728999733924866 0.5
O216 O 0.7475000023841858 0.9728999733924866 0.8333333134651184
O217 O 0.0833333358168602 0.0833333358168602 0.0660666674375534
O218 O 0.0833333358168602 0.0833333358168602 0.399399995803833
O219 O 0.0833333358168602 0.0833333358168602 0.7327333092689514
O220 O 0.0833333358168602 0.4166666567325592 0.0660666674375534
O221 O 0.0833333358168602 0.4166666567325592 0.399399995803833
O222 O 0.0833333358168602 0.4166666567325592 0.7327333092689514
O223 O 0.0833333358168602 0.75 0.0660666674375534
O224 O 0.0833333358168602 0.75 0.399399995803833
O225 O 0.0833333358168602 0.75 0.7327333092689514
O226 O 0.4166666567325592 0.0833333358168602 0.0660666674375534
O227 O 0.4166666567325592 0.0833333358168602 0.399399995803833
O228 O 0.4166666567325592 0.0833333358168602 0.7327333092689514
O229 O 0.4166666567325592 0.4166666567325592 0.0660666674375534
O230 O 0.4166666567325592 0.4166666567325592 0.399399995803833
O231 O 0.4166666567325592 0.4166666567325592 0.7327333092689514
O232 O 0.4166666567325592 0.75 0.0660666674375534
O233 O 0.4166666567325592 0.75 0.399399995803833
O234 O 0.4166666567325592 0.75 0.7327333092689514
O235 O 0.75 0.0833333358168602 0.0660666674375534
O236 O 0.75 0.0833333358168602 0.399399995803833
O237 O 0.75 0.0833333358168602 0.7327333092689514
O238 O 0.75 0.4166666567325592 0.0660666674375534
O239 O 0.75 0.4166666567325592 0.399399995803833
O240 O 0.75 0.4166666567325592 0.7327333092689514
O241 O 0.75 0.75 0.0660666674375534
O242 O 0.75 0.75 0.399399995803833
O243 O 0.75 0.75 0.7327333092689514
O244 O 0.0833333358168602 0.0833333358168602 0.2672666609287262
O245 O 0.0833333358168602 0.0833333358168602 0.600600004196167
O246 O 0.0833333358168602 0.0833333358168602 0.9339333176612854
O247 O 0.0833333358168602 0.4166666567325592 0.2672666609287262
O248 O 0.0833333358168602 0.4166666567325592 0.600600004196167
O249 O 0.0833333358168602 0.4166666567325592 0.9339333176612854
O250 O 0.0833333358168602 0.75 0.2672666609287262
O251 O 0.0833333358168602 0.75 0.600600004196167
O252 O 0.0833333358168602 0.75 0.9339333176612854
O253 O 0.4166666567325592 0.0833333358168602 0.2672666609287262
O254 O 0.4166666567325592 0.0833333358168602 0.600600004196167
O255 O 0.4166666567325592 0.0833333358168602 0.9339333176612854
O256 O 0.4166666567325592 0.4166666567325592 0.2672666609287262
O257 O 0.4166666567325592 0.4166666567325592 0.600600004196167
O258 O 0.4166666567325592 0.4166666567325592 0.9339333176612854
O259 O 0.4166666567325592 0.75 0.2672666609287262
O260 O 0.4166666567325592 0.75 0.600600004196167
O261 O 0.4166666567325592 0.75 0.9339333176612854
O262 O 0.75 0.0833333358168602 0.2672666609287262
O263 O 0.75 0.0833333358168602 0.600600004196167
O264 O 0.75 0.0833333358168602 0.9339333176612854
O265 O 0.75 0.4166666567325592 0.2672666609287262
O266 O 0.75 0.4166666567325592 0.600600004196167
O267 O 0.75 0.4166666567325592 0.9339333176612854
O268 O 0.75 0.75 0.2672666609287262
O269 O 0.75 0.75 0.600600004196167
O270 O 0.75 0.75 0.9339333176612854
O271 O 0.0833333358168602 0.25 0.10060000419616699
O272 O 0.0833333358168602 0.25 0.4339333474636078
O273 O 0.0833333358168602 0.25 0.7672666907310486
O274 O 0.0833333358168602 0.5833333134651184 0.10060000419616699
O275 O 0.0833333358168602 0.5833333134651184 0.4339333474636078
O276 O 0.0833333358168602 0.5833333134651184 0.7672666907310486
O277 O 0.0833333358168602 0.9166666865348816 0.10060000419616699
O278 O 0.0833333358168602 0.9166666865348816 0.4339333474636078
O279 O 0.0833333358168602 0.9166666865348816 0.7672666907310486
O280 O 0.4166666567325592 0.25 0.10060000419616699
O281 O 0.4166666567325592 0.25 0.4339333474636078
O282 O 0.4166666567325592 0.25 0.7672666907310486
O283 O 0.4166666567325592 0.5833333134651184 0.10060000419616699
O284 O 0.4166666567325592 0.5833333134651184 0.4339333474636078
O285 O 0.4166666567325592 0.5833333134651184 0.7672666907310486
O286 O 0.4166666567325592 0.9166666865348816 0.10060000419616699
O287 O 0.4166666567325592 0.9166666865348816 0.4339333474636078
O288 O 0.4166666567325592 0.9166666865348816 0.7672666907310486
O289 O 0.75 0.25 0.10060000419616699
O290 O 0.75 0.25 0.4339333474636078
O291 O 0.75 0.25 0.7672666907310486
O292 O 0.75 0.5833333134651184 0.10060000419616699
O293 O 0.75 0.5833333134651184 0.4339333474636078
O294 O 0.75 0.5833333134651184 0.7672666907310486
O295 O 0.75 0.9166666865348816 0.10060000419616699
O296 O 0.75 0.9166666865348816 0.4339333474636078
O297 O 0.75 0.9166666865348816 0.7672666907310486
O298 O 0.0833333358168602 0.25 0.2327333241701126
O299 O 0.0833333358168602 0.25 0.5660666823387146
O300 O 0.0833333358168602 0.25 0.899399995803833
O301 O 0.0833333358168602 0.5833333134651184 0.2327333241701126
O302 O 0.0833333358168602 0.5833333134651184 0.5660666823387146
O303 O 0.0833333358168602 0.5833333134651184 0.899399995803833
O304 O 0.0833333358168602 0.9166666865348816 0.2327333241701126
O305 O 0.0833333358168602 0.9166666865348816 0.5660666823387146
O306 O 0.0833333358168602 0.9166666865348816 0.899399995803833
O307 O 0.4166666567325592 0.25 0.2327333241701126
O308 O 0.4166666567325592 0.25 0.5660666823387146
O309 O 0.4166666567325592 0.25 0.899399995803833
O310 O 0.4166666567325592 0.5833333134651184 0.2327333241701126
O311 O 0.4166666567325592 0.5833333134651184 0.5660666823387146
O312 O 0.4166666567325592 0.5833333134651184 0.899399995803833
O313 O 0.4166666567325592 0.9166666865348816 0.2327333241701126
O314 O 0.4166666567325592 0.9166666865348816 0.5660666823387146
O315 O 0.4166666567325592 0.9166666865348816 0.899399995803833
O316 O 0.75 0.25 0.2327333241701126
O317 O 0.75 0.25 0.5660666823387146
O318 O 0.75 0.25 0.899399995803833
O319 O 0.75 0.5833333134651184 0.2327333241701126
O320 O 0.75 0.5833333134651184 0.5660666823387146
O321 O 0.75 0.5833333134651184 0.899399995803833
O322 O 0.75 0.9166666865348816 0.2327333241701126
O323 O 0.75 0.9166666865348816 0.5660666823387146
O324 O 0.75 0.9166666865348816 0.899399995803833
O325 O 0.08583333343267441 0.13956667482852936 0.0
O326 O 0.08583333343267441 0.13956667482852936 0.3333333432674408
O327 O 0.08583333343267441 0.13956667482852936 0.6666666865348816
O328 O 0.08583333343267441 0.47290000319480896 0.0
O329 O 0.08583333343267441 0.47290000319480896 0.3333333432674408
O330 O 0.08583333343267441 0.47290000319480896 0.6666666865348816
O331 O 0.08583333343267441 0.8062333464622498 0.0
O332 O 0.08583333343267441 0.8062333464622498 0.3333333432674408
O333 O 0.08583333343267441 0.8062333464622498 0.6666666865348816
O334 O 0.4191666841506958 0.13956667482852936 0.0
O335 O 0.4191666841506958 0.13956667482852936 0.3333333432674408
O336 O 0.4191666841506958 0.13956667482852936 0.6666666865348816
O337 O 0.4191666841506958 0.47290000319480896 0.0
O338 O 0.4191666841506958 0.47290000319480896 0.3333333432674408
O339 O 0.4191666841506958 0.47290000319480896 0.6666666865348816
O340 O 0.4191666841506958 0.8062333464622498 0.0
O341 O 0.4191666841506958 0.8062333464622498 0.3333333432674408
O342 O 0.4191666841506958 0.8062333464622498 0.6666666865348816
O343 O 0.7524999976158142 0.13956667482852936 0.0
O344 O 0.7524999976158142 0.13956667482852936 0.3333333432674408
O345 O 0.7524999976158142 0.13956667482852936 0.6666666865348816
O346 O 0.7524999976158142 0.47290000319480896 0.0
O347 O 0.7524999976158142 0.47290000319480896 0.3333333432674408
O348 O 0.7524999976158142 0.47290000319480896 0.6666666865348816
O349 O 0.7524999976158142 0.8062333464622498 0.0
O350 O 0.7524999976158142 0.8062333464622498 0.3333333432674408
O351 O 0.7524999976158142 0.8062333464622498 0.6666666865348816
O352 O 0.08583333343267441 0.19376666843891144 0.1666666716337204
O353 O 0.08583333343267441 0.19376666843891144 0.5
O354 O 0.08583333343267441 0.19376666843891144 0.8333333134651184
O355 O 0.08583333343267441 0.5271000266075134 0.1666666716337204
O356 O 0.08583333343267441 0.5271000266075134 0.5
O357 O 0.08583333343267441 0.5271000266075134 0.8333333134651184
O358 O 0.08583333343267441 0.8604333400726318 0.1666666716337204
O359 O 0.08583333343267441 0.8604333400726318 0.5
O360 O 0.08583333343267441 0.8604333400726318 0.8333333134651184
O361 O 0.4191666841506958 0.19376666843891144 0.1666666716337204
O362 O 0.4191666841506958 0.19376666843891144 0.5
O363 O 0.4191666841506958 0.19376666843891144 0.8333333134651184
O364 O 0.4191666841506958 0.5271000266075134 0.1666666716337204
O365 O 0.4191666841506958 0.5271000266075134 0.5
O366 O 0.4191666841506958 0.5271000266075134 0.8333333134651184
O367 O 0.4191666841506958 0.8604333400726318 0.1666666716337204
O368 O 0.4191666841506958 0.8604333400726318 0.5
O369 O 0.4191666841506958 0.8604333400726318 0.8333333134651184
O370 O 0.7524999976158142 0.19376666843891144 0.1666666716337204
O371 O 0.7524999976158142 0.19376666843891144 0.5
O372 O 0.7524999976158142 0.19376666843891144 0.8333333134651184
O373 O 0.7524999976158142 0.5271000266075134 0.1666666716337204
O374 O 0.7524999976158142 0.5271000266075134 0.5
O375 O 0.7524999976158142 0.5271000266075134 0.8333333134651184
O376 O 0.7524999976158142 0.8604333400726318 0.1666666716337204
O377 O 0.7524999976158142 0.8604333400726318 0.5
O378 O 0.7524999976158142 0.8604333400726318 0.8333333134651184
O379 O 0.09023333340883255 0.1666666716337204 0.0833333358168602
O380 O 0.09023333340883255 0.1666666716337204 0.4166666567325592
O381 O 0.09023333340883255 0.1666666716337204 0.75
O382 O 0.09023333340883255 0.5 0.0833333358168602
O383 O 0.09023333340883255 0.5 0.4166666567325592
O384 O 0.09023333340883255 0.5 0.75
O385 O 0.09023333340883255 0.8333333134651184 0.0833333358168602
O386 O 0.09023333340883255 0.8333333134651184 0.4166666567325592
O387 O 0.09023333340883255 0.8333333134651184 0.75
O388 O 0.42356666922569275 0.1666666716337204 0.0833333358168602
O389 O 0.42356666922569275 0.1666666716337204 0.4166666567325592
O390 O 0.42356666922569275 0.1666666716337204 0.75
O391 O 0.42356666922569275 0.5 0.0833333358168602
O392 O 0.42356666922569275 0.5 0.4166666567325592
O393 O 0.42356666922569275 0.5 0.75
O394 O 0.42356666922569275 0.8333333134651184 0.0833333358168602
O395 O 0.42356666922569275 0.8333333134651184 0.4166666567325592
O396 O 0.42356666922569275 0.8333333134651184 0.75
O397 O 0.7569000124931335 0.1666666716337204 0.0833333358168602
O398 O 0.7569000124931335 0.1666666716337204 0.4166666567325592
O399 O 0.7569000124931335 0.1666666716337204 0.75
O400 O 0.7569000124931335 0.5 0.0833333358168602
O401 O 0.7569000124931335 0.5 0.4166666567325592
O402 O 0.7569000124931335 0.5 0.75
O403 O 0.7569000124931335 0.8333333134651184 0.0833333358168602
O404 O 0.7569000124931335 0.8333333134651184 0.4166666567325592
O405 O 0.7569000124931335 0.8333333134651184 0.75
O406 O 0.09023333340883255 0.1666666716337204 0.25
O407 O 0.09023333340883255 0.1666666716337204 0.5833333134651184
O408 O 0.09023333340883255 0.1666666716337204 0.9166666865348816
O409 O 0.09023333340883255 0.5 0.25
O410 O 0.09023333340883255 0.5 0.5833333134651184
O411 O 0.09023333340883255 0.5 0.9166666865348816
O412 O 0.09023333340883255 0.8333333134651184 0.25
O413 O 0.09023333340883255 0.8333333134651184 0.5833333134651184
O414 O 0.09023333340883255 0.8333333134651184 0.9166666865348816
O415 O 0.42356666922569275 0.1666666716337204 0.25
O416 O 0.42356666922569275 0.1666666716337204 0.5833333134651184
O417 O 0.42356666922569275 0.1666666716337204 0.9166666865348816
O418 O 0.42356666922569275 0.5 0.25
O419 O 0.42356666922569275 0.5 0.5833333134651184
O420 O 0.42356666922569275 0.5 0.9166666865348816
O421 O 0.42356666922569275 0.8333333134651184 0.25
O422 O 0.42356666922569275 0.8333333134651184 0.5833333134651184
O423 O 0.42356666922569275 0.8333333134651184 0.9166666865348816
O424 O 0.7569000124931335 0.1666666716337204 0.25
O425 O 0.7569000124931335 0.1666666716337204 0.5833333134651184
O426 O 0.7569000124931335 0.1666666716337204 0.9166666865348816
O427 O 0.7569000124931335 0.5 0.25
O428 O 0.7569000124931335 0.5 0.5833333134651184
O429 O 0.7569000124931335 0.5 0.9166666865348816
O430 O 0.7569000124931335 0.8333333134651184 0.25
O431 O 0.7569000124931335 0.8333333134651184 0.5833333134651184
O432 O 0.7569000124931335 0.8333333134651184 0.9166666865348816
O433 O 0.14033333957195282 0.030166665092110634 0.05236667022109032
O434 O 0.14033333957195282 0.030166665092110634 0.385699987411499
O435 O 0.14033333957195282 0.030166665092110634 0.7190333008766174
O436 O 0.14033333957195282 0.3634999990463257 0.05236667022109032
O437 O 0.14033333957195282 0.3634999990463257 0.385699987411499
O438 O 0.14033333957195282 0.3634999990463257 0.7190333008766174
O439 O 0.14033333957195282 0.6968333721160889 0.05236667022109032
O440 O 0.14033333957195282 0.6968333721160889 0.385699987411499
O441 O 0.14033333957195282 0.6968333721160889 0.7190333008766174
O442 O 0.4736666679382324 0.030166665092110634 0.05236667022109032
O443 O 0.4736666679382324 0.030166665092110634 0.385699987411499
O444 O 0.4736666679382324 0.030166665092110634 0.7190333008766174
O445 O 0.4736666679382324 0.3634999990463257 0.05236667022109032
O446 O 0.4736666679382324 0.3634999990463257 0.385699987411499
O447 O 0.4736666679382324 0.3634999990463257 0.7190333008766174
O448 O 0.4736666679382324 0.6968333721160889 0.05236667022109032
O449 O 0.4736666679382324 0.6968333721160889 0.385699987411499
O450 O 0.4736666679382324 0.6968333721160889 0.7190333008766174
O451 O 0.8069999814033508 0.030166665092110634 0.05236667022109032
O452 O 0.8069999814033508 0.030166665092110634 0.385699987411499
O453 O 0.8069999814033508 0.030166665092110634 0.7190333008766174
O454 O 0.8069999814033508 0.3634999990463257 0.05236667022109032
O455 O 0.8069999814033508 0.3634999990463257 0.385699987411499
O456 O 0.8069999814033508 0.3634999990463257 0.7190333008766174
O457 O 0.8069999814033508 0.6968333721160889 0.05236667022109032
O458 O 0.8069999814033508 0.6968333721160889 0.385699987411499
O459 O 0.8069999814033508 0.6968333721160889 0.7190333008766174
O460 O 0.14033333957195282 0.030166665092110634 0.2809666693210602
O461 O 0.14033333957195282 0.030166665092110634 0.614300012588501
O462 O 0.14033333957195282 0.030166665092110634 0.9476333260536194
O463 O 0.14033333957195282 0.3634999990463257 0.2809666693210602
O464 O 0.14033333957195282 0.3634999990463257 0.614300012588501
O465 O 0.14033333957195282 0.3634999990463257 0.9476333260536194
O466 O 0.14033333957195282 0.6968333721160889 0.2809666693210602
O467 O 0.14033333957195282 0.6968333721160889 0.614300012588501
O468 O 0.14033333957195282 0.6968333721160889 0.9476333260536194
O469 O 0.4736666679382324 0.030166665092110634 0.2809666693210602
O470 O 0.4736666679382324 0.030166665092110634 0.614300012588501
O471 O 0.4736666679382324 0.030166665092110634 0.9476333260536194
O472 O 0.4736666679382324 0.3634999990463257 0.2809666693210602
O473 O 0.4736666679382324 0.3634999990463257 0.614300012588501
O474 O 0.4736666679382324 0.3634999990463257 0.9476333260536194
O475 O 0.4736666679382324 0.6968333721160889 0.2809666693210602
O476 O 0.4736666679382324 0.6968333721160889 0.614300012588501
O477 O 0.4736666679382324 0.6968333721160889 0.9476333260536194
O478 O 0.8069999814033508 0.030166665092110634 0.2809666693210602
O479 O 0.8069999814033508 0.030166665092110634 0.614300012588501
O480 O 0.8069999814033508 0.030166665092110634 0.9476333260536194
O481 O 0.8069999814033508 0.3634999990463257 0.2809666693210602
O482 O 0.8069999814033508 0.3634999990463257 0.614300012588501
O483 O 0.8069999814033508 0.3634999990463257 0.9476333260536194
O484 O 0.8069999814033508 0.6968333721160889 0.2809666693210602
O485 O 0.8069999814033508 0.6968333721160889 0.614300012588501
O486 O 0.8069999814033508 0.6968333721160889 0.9476333260536194
O487 O 0.14033333957195282 0.3031666576862335 0.11430000513792038
O488 O 0.14033333957195282 0.3031666576862335 0.4476333558559418
O489 O 0.14033333957195282 0.3031666576862335 0.7809666991233826
O490 O 0.14033333957195282 0.6365000009536743 0.11430000513792038
O491 O 0.14033333957195282 0.6365000009536743 0.4476333558559418
O492 O 0.14033333957195282 0.6365000009536743 0.7809666991233826
O493 O 0.14033333957195282 0.9698333144187927 0.11430000513792038
O494 O 0.14033333957195282 0.9698333144187927 0.4476333558559418
O495 O 0.14033333957195282 0.9698333144187927 0.7809666991233826
O496 O 0.4736666679382324 0.3031666576862335 0.11430000513792038
O497 O 0.4736666679382324 0.3031666576862335 0.4476333558559418
O498 O 0.4736666679382324 0.3031666576862335 0.7809666991233826
O499 O 0.4736666679382324 0.6365000009536743 0.11430000513792038
O500 O 0.4736666679382324 0.6365000009536743 0.4476333558559418
O501 O 0.4736666679382324 0.6365000009536743 0.7809666991233826
O502 O 0.4736666679382324 0.9698333144187927 0.11430000513792038
O503 O 0.4736666679382324 0.9698333144187927 0.4476333558559418
O504 O 0.4736666679382324 0.9698333144187927 0.7809666991233826
O505 O 0.8069999814033508 0.3031666576862335 0.11430000513792038
O506 O 0.8069999814033508 0.3031666576862335 0.4476333558559418
O507 O 0.8069999814033508 0.3031666576862335 0.7809666991233826
O508 O 0.8069999814033508 0.6365000009536743 0.11430000513792038
O509 O 0.8069999814033508 0.6365000009536743 0.4476333558559418
O510 O 0.8069999814033508 0.6365000009536743 0.7809666991233826
O511 O 0.8069999814033508 0.9698333144187927 0.11430000513792038
O512 O 0.8069999814033508 0.9698333144187927 0.4476333558559418
O513 O 0.8069999814033508 0.9698333144187927 0.7809666991233826
O514 O 0.14033333957195282 0.3031666576862335 0.219033345580101
O515 O 0.14033333957195282 0.3031666576862335 0.5523666739463806
O516 O 0.14033333957195282 0.3031666576862335 0.885699987411499
O517 O 0.14033333957195282 0.6365000009536743 0.219033345580101
O518 O 0.14033333957195282 0.6365000009536743 0.5523666739463806
O519 O 0.14033333957195282 0.6365000009536743 0.885699987411499
O520 O 0.14033333957195282 0.9698333144187927 0.219033345580101
O521 O 0.14033333957195282 0.9698333144187927 0.5523666739463806
O522 O 0.14033333957195282 0.9698333144187927 0.885699987411499
O523 O 0.4736666679382324 0.3031666576862335 0.219033345580101
O524 O 0.4736666679382324 0.3031666576862335 0.5523666739463806
O525 O 0.4736666679382324 0.3031666576862335 0.885699987411499
O526 O 0.4736666679382324 0.6365000009536743 0.219033345580101
O527 O 0.4736666679382324 0.6365000009536743 0.5523666739463806
O528 O 0.4736666679382324 0.6365000009536743 0.885699987411499
O529 O 0.4736666679382324 0.9698333144187927 0.219033345580101
O530 O 0.4736666679382324 0.9698333144187927 0.5523666739463806
O531 O 0.4736666679382324 0.9698333144187927 0.885699987411499
O532 O 0.8069999814033508 0.3031666576862335 0.219033345580101
O533 O 0.8069999814033508 0.3031666576862335 0.5523666739463806
O534 O 0.8069999814033508 0.3031666576862335 0.885699987411499
O535 O 0.8069999814033508 0.6365000009536743 0.219033345580101
O536 O 0.8069999814033508 0.6365000009536743 0.5523666739463806
O537 O 0.8069999814033508 0.6365000009536743 0.885699987411499
O538 O 0.8069999814033508 0.9698333144187927 0.219033345580101
O539 O 0.8069999814033508 0.9698333144187927 0.5523666739463806
O540 O 0.8069999814033508 0.9698333144187927 0.885699987411499
O541 O 0.19300000369548798 0.030166665092110634 0.11430000513792038
O542 O 0.19300000369548798 0.030166665092110634 0.4476333558559418
O543 O 0.19300000369548798 0.030166665092110634 0.7809666991233826
O544 O 0.19300000369548798 0.3634999990463257 0.11430000513792038
O545 O 0.19300000369548798 0.3634999990463257 0.4476333558559418
O546 O 0.19300000369548798 0.3634999990463257 0.7809666991233826
O547 O 0.19300000369548798 0.6968333721160889 0.11430000513792038
O548 O 0.19300000369548798 0.6968333721160889 0.4476333558559418
O549 O 0.19300000369548798 0.6968333721160889 0.7809666991233826
O550 O 0.5263333320617676 0.030166665092110634 0.11430000513792038
O551 O 0.5263333320617676 0.030166665092110634 0.4476333558559418
O552 O 0.5263333320617676 0.030166665092110634 0.7809666991233826
O553 O 0.5263333320617676 0.3634999990463257 0.11430000513792038
O554 O 0.5263333320617676 0.3634999990463257 0.4476333558559418
O555 O 0.5263333320617676 0.3634999990463257 0.7809666991233826
O556 O 0.5263333320617676 0.6968333721160889 0.11430000513792038
O557 O 0.5263333320617676 0.6968333721160889 0.4476333558559418
O558 O 0.5263333320617676 0.6968333721160889 0.7809666991233826
O559 O 0.859666645526886 0.030166665092110634 0.11430000513792038
O560 O 0.859666645526886 0.030166665092110634 0.4476333558559418
O561 O 0.859666645526886 0.030166665092110634 0.7809666991233826
O562 O 0.859666645526886 0.3634999990463257 0.11430000513792038
O563 O 0.859666645526886 0.3634999990463257 0.4476333558559418
O564 O 0.859666645526886 0.3634999990463257 0.7809666991233826
O565 O 0.859666645526886 0.6968333721160889 0.11430000513792038
O566 O 0.859666645526886 0.6968333721160889 0.4476333558559418
O567 O 0.859666645526886 0.6968333721160889 0.7809666991233826
O568 O 0.19300000369548798 0.030166665092110634 0.219033345580101
O569 O 0.19300000369548798 0.030166665092110634 0.5523666739463806
O570 O 0.19300000369548798 0.030166665092110634 0.885699987411499
O571 O 0.19300000369548798 0.3634999990463257 0.219033345580101
O572 O 0.19300000369548798 0.3634999990463257 0.5523666739463806
O573 O 0.19300000369548798 0.3634999990463257 0.885699987411499
O574 O 0.19300000369548798 0.6968333721160889 0.219033345580101
O575 O 0.19300000369548798 0.6968333721160889 0.5523666739463806
O576 O 0.19300000369548798 0.6968333721160889 0.885699987411499
O577 O 0.5263333320617676 0.030166665092110634 0.219033345580101
O578 O 0.5263333320617676 0.030166665092110634 0.5523666739463806
O579 O 0.5263333320617676 0.030166665092110634 0.885699987411499
O580 O 0.5263333320617676 0.3634999990463257 0.219033345580101
O581 O 0.5263333320617676 0.3634999990463257 0.5523666739463806
O582 O 0.5263333320617676 0.3634999990463257 0.885699987411499
O583 O 0.5263333320617676 0.6968333721160889 0.219033345580101
O584 O 0.5263333320617676 0.6968333721160889 0.5523666739463806
O585 O 0.5263333320617676 0.6968333721160889 0.885699987411499
O586 O 0.859666645526886 0.030166665092110634 0.219033345580101
O587 O 0.859666645526886 0.030166665092110634 0.5523666739463806
O588 O 0.859666645526886 0.030166665092110634 0.885699987411499
O589 O 0.859666645526886 0.3634999990463257 0.219033345580101
O590 O 0.859666645526886 0.3634999990463257 0.5523666739463806
O591 O 0.859666645526886 0.3634999990463257 0.885699987411499
O592 O 0.859666645526886 0.6968333721160889 0.219033345580101
O593 O 0.859666645526886 0.6968333721160889 0.5523666739463806
O594 O 0.859666645526886 0.6968333721160889 0.885699987411499
O595 O 0.19300000369548798 0.3031666576862335 0.05236667022109032
O596 O 0.19300000369548798 0.3031666576862335 0.385699987411499
O597 O 0.19300000369548798 0.3031666576862335 0.7190333008766174
O598 O 0.19300000369548798 0.6365000009536743 0.05236667022109032
O599 O 0.19300000369548798 0.6365000009536743 0.385699987411499
O600 O 0.19300000369548798 0.6365000009536743 0.7190333008766174
O601 O 0.19300000369548798 0.9698333144187927 0.05236667022109032
O602 O 0.19300000369548798 0.9698333144187927 0.385699987411499
O603 O 0.19300000369548798 0.9698333144187927 0.7190333008766174
O604 O 0.5263333320617676 0.3031666576862335 0.05236667022109032
O605 O 0.5263333320617676 0.3031666576862335 0.385699987411499
O606 O 0.5263333320617676 0.3031666576862335 0.7190333008766174
O607 O 0.5263333320617676 0.6365000009536743 0.05236667022109032
O608 O 0.5263333320617676 0.6365000009536743 0.385699987411499
O609 O 0.5263333320617676 0.6365000009536743 0.7190333008766174
O610 O 0.5263333320617676 0.9698333144187927 0.05236667022109032
O611 O 0.5263333320617676 0.9698333144187927 0.385699987411499
O612 O 0.5263333320617676 0.9698333144187927 0.7190333008766174
O613 O 0.859666645526886 0.3031666576862335 0.05236667022109032
O614 O 0.859666645526886 0.3031666576862335 0.385699987411499
O615 O 0.859666645526886 0.3031666576862335 0.7190333008766174
O616 O 0.859666645526886 0.6365000009536743 0.05236667022109032
O617 O 0.859666645526886 0.6365000009536743 0.385699987411499
O618 O 0.859666645526886 0.6365000009536743 0.7190333008766174
O619 O 0.859666645526886 0.9698333144187927 0.05236667022109032
O620 O 0.859666645526886 0.9698333144187927 0.385699987411499
O621 O 0.859666645526886 0.9698333144187927 0.7190333008766174
O622 O 0.19300000369548798 0.3031666576862335 0.2809666693210602
O623 O 0.19300000369548798 0.3031666576862335 0.614300012588501
O624 O 0.19300000369548798 0.3031666576862335 0.9476333260536194
O625 O 0.19300000369548798 0.6365000009536743 0.2809666693210602
O626 O 0.19300000369548798 0.6365000009536743 0.614300012588501
O627 O 0.19300000369548798 0.6365000009536743 0.9476333260536194
O628 O 0.19300000369548798 0.9698333144187927 0.2809666693210602
O629 O 0.19300000369548798 0.9698333144187927 0.614300012588501
O630 O 0.19300000369548798 0.9698333144187927 0.9476333260536194
O631 O 0.5263333320617676 0.3031666576862335 0.2809666693210602
O632 O 0.5263333320617676 0.3031666576862335 0.614300012588501
O633 O 0.5263333320617676 0.3031666576862335 0.9476333260536194
O634 O 0.5263333320617676 0.6365000009536743 0.2809666693210602
O635 O 0.5263333320617676 0.6365000009536743 0.614300012588501
O636 O 0.5263333320617676 0.6365000009536743 0.9476333260536194
O637 O 0.5263333320617676 0.9698333144187927 0.2809666693210602
O638 O 0.5263333320617676 0.9698333144187927 0.614300012588501
O639 O 0.5263333320617676 0.9698333144187927 0.9476333260536194
O640 O 0.859666645526886 0.3031666576862335 0.2809666693210602
O641 O 0.859666645526886 0.3031666576862335 0.614300012588501
O642 O 0.859666645526886 0.3031666576862335 0.9476333260536194
O643 O 0.859666645526886 0.6365000009536743 0.2809666693210602
O644 O 0.859666645526886 0.6365000009536743 0.614300012588501
O645 O 0.859666645526886 0.6365000009536743 0.9476333260536194
O646 O 0.859666645526886 0.9698333144187927 0.2809666693210602
O647 O 0.859666645526886 0.9698333144187927 0.614300012588501
O648 O 0.859666645526886 0.9698333144187927 0.9476333260536194
O649 O 0.24310000240802765 0.1666666716337204 0.0833333358168602
O650 O 0.24310000240802765 0.1666666716337204 0.4166666567325592
O651 O 0.24310000240802765 0.1666666716337204 0.75
O652 O 0.24310000240802765 0.5 0.0833333358168602
O653 O 0.24310000240802765 0.5 0.4166666567325592
O654 O 0.24310000240802765 0.5 0.75
O655 O 0.24310000240802765 0.8333333134651184 0.0833333358168602
O656 O 0.24310000240802765 0.8333333134651184 0.4166666567325592
O657 O 0.24310000240802765 0.8333333134651184 0.75
O658 O 0.5764333605766296 0.1666666716337204 0.0833333358168602
O659 O 0.5764333605766296 0.1666666716337204 0.4166666567325592
O660 O 0.5764333605766296 0.1666666716337204 0.75
O661 O 0.5764333605766296 0.5 0.0833333358168602
O662 O 0.5764333605766296 0.5 0.4166666567325592
O663 O 0.5764333605766296 0.5 0.75
O664 O 0.5764333605766296 0.8333333134651184 0.0833333358168602
O665 O 0.5764333605766296 0.8333333134651184 0.4166666567325592
O666 O 0.5764333605766296 0.8333333134651184 0.75
O667 O 0.909766674041748 0.1666666716337204 0.0833333358168602
O668 O 0.909766674041748 0.1666666716337204 0.4166666567325592
O669 O 0.909766674041748 0.1666666716337204 0.75
O670 O 0.909766674041748 0.5 0.0833333358168602
O671 O 0.909766674041748 0.5 0.4166666567325592
O672 O 0.909766674041748 0.5 0.75
O673 O 0.909766674041748 0.8333333134651184 0.0833333358168602
O674 O 0.909766674041748 0.8333333134651184 0.4166666567325592
O675 O 0.909766674041748 0.8333333134651184 0.75
O676 O 0.24310000240802765 0.1666666716337204 0.25
O677 O 0.24310000240802765 0.1666666716337204 0.5833333134651184
O678 O 0.24310000240802765 0.1666666716337204 0.9166666865348816
O679 O 0.24310000240802765 0.5 0.25
O680 O 0.24310000240802765 0.5 0.5833333134651184
O681 O 0.24310000240802765 0.5 0.9166666865348816
O682 O 0.24310000240802765 0.8333333134651184 0.25
O683 O 0.24310000240802765 0.8333333134651184 0.5833333134651184
O684 O 0.24310000240802765 0.8333333134651184 0.9166666865348816
O685 O 0.5764333605766296 0.1666666716337204 0.25
O686 O 0.5764333605766296 0.1666666716337204 0.5833333134651184
O687 O 0.5764333605766296 0.1666666716337204 0.9166666865348816
O688 O 0.5764333605766296 0.5 0.25
O689 O 0.5764333605766296 0.5 0.5833333134651184
O690 O 0.5764333605766296 0.5 0.9166666865348816
O691 O 0.5764333605766296 0.8333333134651184 0.25
O692 O 0.5764333605766296 0.8333333134651184 0.5833333134651184
O693 O 0.5764333605766296 0.8333333134651184 0.9166666865348816
O694 O 0.909766674041748 0.1666666716337204 0.25
O695 O 0.909766674041748 0.1666666716337204 0.5833333134651184
O696 O 0.909766674041748 0.1666666716337204 0.9166666865348816
O697 O 0.909766674041748 0.5 0.25
O698 O 0.909766674041748 0.5 0.5833333134651184
O699 O 0.909766674041748 0.5 0.9166666865348816
O700 O 0.909766674041748 0.8333333134651184 0.25
O701 O 0.909766674041748 0.8333333134651184 0.5833333134651184
O702 O 0.909766674041748 0.8333333134651184 0.9166666865348816
O703 O 0.2475000023841858 0.13956667482852936 0.1666666716337204
O704 O 0.2475000023841858 0.13956667482852936 0.5
O705 O 0.2475000023841858 0.13956667482852936 0.8333333134651184
O706 O 0.2475000023841858 0.47290000319480896 0.1666666716337204
O707 O 0.2475000023841858 0.47290000319480896 0.5
O708 O 0.2475000023841858 0.47290000319480896 0.8333333134651184
O709 O 0.2475000023841858 0.8062333464622498 0.1666666716337204
O710 O 0.2475000023841858 0.8062333464622498 0.5
O711 O 0.2475000023841858 0.8062333464622498 0.8333333134651184
O712 O 0.5808333158493042 0.13956667482852936 0.1666666716337204
O713 O 0.5808333158493042 0.13956667482852936 0.5
O714 O 0.5808333158493042 0.13956667482852936 0.8333333134651184
O715 O 0.5808333158493042 0.47290000319480896 0.1666666716337204
O716 O 0.5808333158493042 0.47290000319480896 0.5
O717 O 0.5808333158493042 0.47290000319480896 0.8333333134651184
O718 O 0.5808333158493042 0.8062333464622498 0.1666666716337204
O719 O 0.5808333158493042 0.8062333464622498 0.5
O720 O 0.5808333158493042 0.8062333464622498 0.8333333134651184
O721 O 0.9141666889190674 0.13956667482852936 0.1666666716337204
O722 O 0.9141666889190674 0.13956667482852936 0.5
O723 O 0.9141666889190674 0.13956667482852936 0.8333333134651184
O724 O 0.9141666889190674 0.47290000319480896 0.1666666716337204
O725 O 0.9141666889190674 0.47290000319480896 0.5
O726 O 0.9141666889190674 0.47290000319480896 0.8333333134651184
O727 O 0.9141666889190674 0.8062333464622498 0.1666666716337204
O728 O 0.9141666889190674 0.8062333464622498 0.5
O729 O 0.9141666889190674 0.8062333464622498 0.8333333134651184
O730 O 0.2475000023841858 0.19376666843891144 0.0
O731 O 0.2475000023841858 0.19376666843891144 0.3333333432674408
O732 O 0.2475000023841858 0.19376666843891144 0.6666666865348816
O733 O 0.2475000023841858 0.5271000266075134 0.0
O734 O 0.2475000023841858 0.5271000266075134 0.3333333432674408
O735 O 0.2475000023841858 0.5271000266075134 0.6666666865348816
O736 O 0.2475000023841858 0.8604333400726318 0.0
O737 O 0.2475000023841858 0.8604333400726318 0.3333333432674408
O738 O 0.2475000023841858 0.8604333400726318 0.6666666865348816
O739 O 0.5808333158493042 0.19376666843891144 0.0
O740 O 0.5808333158493042 0.19376666843891144 0.3333333432674408
O741 O 0.5808333158493042 0.19376666843891144 0.6666666865348816
O742 O 0.5808333158493042 0.5271000266075134 0.0
O743 O 0.5808333158493042 0.5271000266075134 0.3333333432674408
O744 O 0.5808333158493042 0.5271000266075134 0.6666666865348816
O745 O 0.5808333158493042 0.8604333400726318 0.0
O746 O 0.5808333158493042 0.8604333400726318 0.3333333432674408
O747 O 0.5808333158493042 0.8604333400726318 0.6666666865348816
O748 O 0.9141666889190674 0.19376666843891144 0.0
O749 O 0.9141666889190674 0.19376666843891144 0.3333333432674408
O750 O 0.9141666889190674 0.19376666843891144 0.6666666865348816
O751 O 0.9141666889190674 0.5271000266075134 0.0
O752 O 0.9141666889190674 0.5271000266075134 0.3333333432674408
O753 O 0.9141666889190674 0.5271000266075134 0.6666666865348816
O754 O 0.9141666889190674 0.8604333400726318 0.0
O755 O 0.9141666889190674 0.8604333400726318 0.3333333432674408
O756 O 0.9141666889190674 0.8604333400726318 0.6666666865348816
O757 O 0.25 0.0833333358168602 0.10060000419616699
O758 O 0.25 0.0833333358168602 0.4339333474636078
O759 O 0.25 0.0833333358168602 0.7672666907310486
O760 O 0.25 0.4166666567325592 0.10060000419616699
O761 O 0.25 0.4166666567325592 0.4339333474636078
O762 O 0.25 0.4166666567325592 0.7672666907310486
O763 O 0.25 0.75 0.10060000419616699
O764 O 0.25 0.75 0.4339333474636078
O765 O 0.25 0.75 0.7672666907310486
O766 O 0.5833333134651184 0.0833333358168602 0.10060000419616699
O767 O 0.5833333134651184 0.0833333358168602 0.4339333474636078
O768 O 0.5833333134651184 0.0833333358168602 0.7672666907310486
O769 O 0.5833333134651184 0.4166666567325592 0.10060000419616699
O770 O 0.5833333134651184 0.4166666567325592 0.4339333474636078
O771 O 0.5833333134651184 0.4166666567325592 0.7672666907310486
O772 O 0.5833333134651184 0.75 0.10060000419616699
O773 O 0.5833333134651184 0.75 0.4339333474636078
O774 O 0.5833333134651184 0.75 0.7672666907310486
O775 O 0.9166666865348816 0.0833333358168602 0.10060000419616699
O776 O 0.9166666865348816 0.0833333358168602 0.4339333474636078
O777 O 0.9166666865348816 0.0833333358168602 0.7672666907310486
O778 O 0.9166666865348816 0.4166666567325592 0.10060000419616699
O779 O 0.9166666865348816 0.4166666567325592 0.4339333474636078
O780 O 0.9166666865348816 0.4166666567325592 0.7672666907310486
O781 O 0.9166666865348816 0.75 0.10060000419616699
O782 O 0.9166666865348816 0.75 0.4339333474636078
O783 O 0.9166666865348816 0.75 0.7672666907310486
O784 O 0.25 0.0833333358168602 0.2327333241701126
O785 O 0.25 0.0833333358168602 0.5660666823387146
O786 O 0.25 0.0833333358168602 0.899399995803833
O787 O 0.25 0.4166666567325592 0.2327333241701126
O788 O 0.25 0.4166666567325592 0.5660666823387146
O789 O 0.25 0.4166666567325592 0.899399995803833
O790 O 0.25 0.75 0.2327333241701126
O791 O 0.25 0.75 0.5660666823387146
O792 O 0.25 0.75 0.899399995803833
O793 O 0.5833333134651184 0.0833333358168602 0.2327333241701126
O794 O 0.5833333134651184 0.0833333358168602 0.5660666823387146
O795 O 0.5833333134651184 0.0833333358168602 0.899399995803833
O796 O 0.5833333134651184 0.4166666567325592 0.2327333241701126
O797 O 0.5833333134651184 0.4166666567325592 0.5660666823387146
O798 O 0.5833333134651184 0.4166666567325592 0.899399995803833
O799 O 0.5833333134651184 0.75 0.2327333241701126
O800 O 0.5833333134651184 0.75 0.5660666823387146
O801 O 0.5833333134651184 0.75 0.899399995803833
O802 O 0.9166666865348816 0.0833333358168602 0.2327333241701126
O803 O 0.9166666865348816 0.0833333358168602 0.5660666823387146
O804 O 0.9166666865348816 0.0833333358168602 0.899399995803833
O805 O 0.9166666865348816 0.4166666567325592 0.2327333241701126
O806 O 0.9166666865348816 0.4166666567325592 0.5660666823387146
O807 O 0.9166666865348816 0.4166666567325592 0.899399995803833
O808 O 0.9166666865348816 0.75 0.2327333241701126
O809 O 0.9166666865348816 0.75 0.5660666823387146
O810 O 0.9166666865348816 0.75 0.899399995803833
O811 O 0.25 0.25 0.0660666674375534
O812 O 0.25 0.25 0.399399995803833
O813 O 0.25 0.25 0.7327333092689514
O814 O 0.25 0.5833333134651184 0.0660666674375534
O815 O 0.25 0.5833333134651184 0.399399995803833
O816 O 0.25 0.5833333134651184 0.7327333092689514
O817 O 0.25 0.9166666865348816 0.0660666674375534
O818 O 0.25 0.9166666865348816 0.399399995803833
O819 O 0.25 0.9166666865348816 0.7327333092689514
O820 O 0.5833333134651184 0.25 0.0660666674375534
O821 O 0.5833333134651184 0.25 0.399399995803833
O822 O 0.5833333134651184 0.25 0.7327333092689514
O823 O 0.5833333134651184 0.5833333134651184 0.0660666674375534
O824 O 0.5833333134651184 0.5833333134651184 0.399399995803833
O825 O 0.5833333134651184 0.5833333134651184 0.7327333092689514
O826 O 0.5833333134651184 0.9166666865348816 0.0660666674375534
O827 O 0.5833333134651184 0.9166666865348816 0.399399995803833
O828 O 0.5833333134651184 0.9166666865348816 0.7327333092689514
O829 O 0.9166666865348816 0.25 0.0660666674375534
O830 O 0.9166666865348816 0.25 0.399399995803833
O831 O 0.9166666865348816 0.25 0.7327333092689514
O832 O 0.9166666865348816 0.5833333134651184 0.0660666674375534
O833 O 0.9166666865348816 0.5833333134651184 0.399399995803833
O834 O 0.9166666865348816 0.5833333134651184 0.7327333092689514
O835 O 0.9166666865348816 0.9166666865348816 0.0660666674375534
O836 O 0.9166666865348816 0.9166666865348816 0.399399995803833
O837 O 0.9166666865348816 0.9166666865348816 0.7327333092689514
O838 O 0.25 0.25 0.2672666609287262
O839 O 0.25 0.25 0.600600004196167
O840 O 0.25 0.25 0.9339333176612854
O841 O 0.25 0.5833333134651184 0.2672666609287262
O842 O 0.25 0.5833333134651184 0.600600004196167
O843 O 0.25 0.5833333134651184 0.9339333176612854
O844 O 0.25 0.9166666865348816 0.2672666609287262
O845 O 0.25 0.9166666865348816 0.600600004196167
O846 O 0.25 0.9166666865348816 0.9339333176612854
O847 O 0.5833333134651184 0.25 0.2672666609287262
O848 O 0.5833333134651184 0.25 0.600600004196167
O849 O 0.5833333134651184 0.25 0.9339333176612854
O850 O 0.5833333134651184 0.5833333134651184 0.2672666609287262
O851 O 0.5833333134651184 0.5833333134651184 0.600600004196167
O852 O 0.5833333134651184 0.5833333134651184 0.9339333176612854
O853 O 0.5833333134651184 0.9166666865348816 0.2672666609287262
O854 O 0.5833333134651184 0.9166666865348816 0.600600004196167
O855 O 0.5833333134651184 0.9166666865348816 0.9339333176612854
O856 O 0.9166666865348816 0.25 0.2672666609287262
O857 O 0.9166666865348816 0.25 0.600600004196167
O858 O 0.9166666865348816 0.25 0.9339333176612854
O859 O 0.9166666865348816 0.5833333134651184 0.2672666609287262
O860 O 0.9166666865348816 0.5833333134651184 0.600600004196167
O861 O 0.9166666865348816 0.5833333134651184 0.9339333176612854
O862 O 0.9166666865348816 0.9166666865348816 0.2672666609287262
O863 O 0.9166666865348816 0.9166666865348816 0.600600004196167
O864 O 0.9166666865348816 0.9166666865348816 0.9339333176612854
O865 O 0.2524999976158142 0.02709999866783619 0.1666666716337204
O866 O 0.2524999976158142 0.02709999866783619 0.5
O867 O 0.2524999976158142 0.02709999866783619 0.8333333134651184
O868 O 0.2524999976158142 0.36043334007263184 0.1666666716337204
O869 O 0.2524999976158142 0.36043334007263184 0.5
O870 O 0.2524999976158142 0.36043334007263184 0.8333333134651184
O871 O 0.2524999976158142 0.6937666535377502 0.1666666716337204
O872 O 0.2524999976158142 0.6937666535377502 0.5
O873 O 0.2524999976158142 0.6937666535377502 0.8333333134651184
O874 O 0.5858333706855774 0.02709999866783619 0.1666666716337204
O875 O 0.5858333706855774 0.02709999866783619 0.5
O876 O 0.5858333706855774 0.02709999866783619 0.8333333134651184
O877 O 0.5858333706855774 0.36043334007263184 0.1666666716337204
O878 O 0.5858333706855774 0.36043334007263184 0.5
O879 O 0.5858333706855774 0.36043334007263184 0.8333333134651184
O880 O 0.5858333706855774 0.6937666535377502 0.1666666716337204
O881 O 0.5858333706855774 0.6937666535377502 0.5
O882 O 0.5858333706855774 0.6937666535377502 0.8333333134651184
O883 O 0.919166624546051 0.02709999866783619 0.1666666716337204
O884 O 0.919166624546051 0.02709999866783619 0.5
O885 O 0.919166624546051 0.02709999866783619 0.8333333134651184
O886 O 0.919166624546051 0.36043334007263184 0.1666666716337204
O887 O 0.919166624546051 0.36043334007263184 0.5
O888 O 0.919166624546051 0.36043334007263184 0.8333333134651184
O889 O 0.919166624546051 0.6937666535377502 0.1666666716337204
O890 O 0.919166624546051 0.6937666535377502 0.5
O891 O 0.919166624546051 0.6937666535377502 0.8333333134651184
O892 O 0.2524999976158142 0.30623331665992737 0.0
O893 O 0.2524999976158142 0.30623331665992737 0.3333333432674408
O894 O 0.2524999976158142 0.30623331665992737 0.6666666865348816
O895 O 0.2524999976158142 0.6395666599273682 0.0
O896 O 0.2524999976158142 0.6395666599273682 0.3333333432674408
O897 O 0.2524999976158142 0.6395666599273682 0.6666666865348816
O898 O 0.2524999976158142 0.9728999733924866 0.0
O899 O 0.2524999976158142 0.9728999733924866 0.3333333432674408
O900 O 0.2524999976158142 0.9728999733924866 0.6666666865348816
O901 O 0.5858333706855774 0.30623331665992737 0.0
O902 O 0.5858333706855774 0.30623331665992737 0.3333333432674408
O903 O 0.5858333706855774 0.30623331665992737 0.6666666865348816
O904 O 0.5858333706855774 0.6395666599273682 0.0
O905 O 0.5858333706855774 0.6395666599273682 0.3333333432674408
O906 O 0.5858333706855774 0.6395666599273682 0.6666666865348816
O907 O 0.5858333706855774 0.9728999733924866 0.0
O908 O 0.5858333706855774 0.9728999733924866 0.3333333432674408
O909 O 0.5858333706855774 0.9728999733924866 0.6666666865348816
O910 O 0.919166624546051 0.30623331665992737 0.0
O911 O 0.919166624546051 0.30623331665992737 0.3333333432674408
O912 O 0.919166624546051 0.30623331665992737 0.6666666865348816
O913 O 0.919166624546051 0.6395666599273682 0.0
O914 O 0.919166624546051 0.6395666599273682 0.3333333432674408
O915 O 0.919166624546051 0.6395666599273682 0.6666666865348816
O916 O 0.919166624546051 0.9728999733924866 0.0
O917 O 0.919166624546051 0.9728999733924866 0.3333333432674408
O918 O 0.919166624546051 0.9728999733924866 0.6666666865348816
O919 O 0.25689998269081116 0.0 0.0833333358168602
O920 O 0.25689998269081116 0.0 0.4166666567325592
O921 O 0.25689998269081116 0.0 0.75
O922 O 0.25689998269081116 0.3333333432674408 0.0833333358168602
O923 O 0.25689998269081116 0.3333333432674408 0.4166666567325592
O924 O 0.25689998269081116 0.3333333432674408 0.75
O925 O 0.25689998269081116 0.6666666865348816 0.0833333358168602
O926 O 0.25689998269081116 0.6666666865348816 0.4166666567325592
O927 O 0.25689998269081116 0.6666666865348816 0.75
O928 O 0.590233325958252 0.0 0.0833333358168602
O929 O 0.590233325958252 0.0 0.4166666567325592
O930 O 0.590233325958252 0.0 0.75
O931 O 0.590233325958252 0.3333333432674408 0.0833333358168602
O932 O 0.590233325958252 0.3333333432674408 0.4166666567325592
O933 O 0.590233325958252 0.3333333432674408 0.75
O934 O 0.590233325958252 0.6666666865348816 0.0833333358168602
O935 O 0.590233325958252 0.6666666865348816 0.4166666567325592
O936 O 0.590233325958252 0.6666666865348816 0.75
O937 O 0.9235666394233704 0.0 0.0833333358168602
O938 O 0.9235666394233704 0.0 0.4166666567325592
O939 O 0.9235666394233704 0.0 0.75
O940 O 0.9235666394233704 0.3333333432674408 0.0833333358168602
O941 O 0.9235666394233704 0.3333333432674408 0.4166666567325592
O942 O 0.9235666394233704 0.3333333432674408 0.75
O943 O 0.9235666394233704 0.6666666865348816 0.0833333358168602
O944 O 0.9235666394233704 0.6666666865348816 0.4166666567325592
O945 O 0.9235666394233704 0.6666666865348816 0.75
O946 O 0.25689998269081116 0.0 0.25
O947 O 0.25689998269081116 0.0 0.5833333134651184
O948 O 0.25689998269081116 0.0 0.9166666865348816
O949 O 0.25689998269081116 0.3333333432674408 0.25
O950 O 0.25689998269081116 0.3333333432674408 0.5833333134651184
O951 O 0.25689998269081116 0.3333333432674408 0.9166666865348816
O952 O 0.25689998269081116 0.6666666865348816 0.25
O953 O 0.25689998269081116 0.6666666865348816 0.5833333134651184
O954 O 0.25689998269081116 0.6666666865348816 0.9166666865348816
O955 O 0.590233325958252 0.0 0.25
O956 O 0.590233325958252 0.0 0.5833333134651184
O957 O 0.590233325958252 0.0 0.9166666865348816
O958 O 0.590233325958252 0.3333333432674408 0.25
O959 O 0.590233325958252 0.3333333432674408 0.5833333134651184
O960 O 0.590233325958252 0.3333333432674408 0.9166666865348816
O961 O 0.590233325958252 0.6666666865348816 0.25
O962 O 0.590233325958252 0.6666666865348816 0.5833333134651184
O963 O 0.590233325958252 0.6666666865348816 0.9166666865348816
O964 O 0.9235666394233704 0.0 0.25
O965 O 0.9235666394233704 0.0 0.5833333134651184
O966 O 0.9235666394233704 0.0 0.9166666865348816
O967 O 0.9235666394233704 0.3333333432674408 0.25
O968 O 0.9235666394233704 0.3333333432674408 0.5833333134651184
O969 O 0.9235666394233704 0.3333333432674408 0.9166666865348816
O970 O 0.9235666394233704 0.6666666865348816 0.25
O971 O 0.9235666394233704 0.6666666865348816 0.5833333134651184
O972 O 0.9235666394233704 0.6666666865348816 0.9166666865348816
O973 O 0.3070000112056732 0.13650000095367432 0.11430000513792038
O974 O 0.3070000112056732 0.13650000095367432 0.4476333558559418
O975 O 0.3070000112056732 0.13650000095367432 0.7809666991233826
O976 O 0.3070000112056732 0.4698333442211151 0.11430000513792038
O977 O 0.3070000112056732 0.4698333442211151 0.4476333558559418
O978 O 0.3070000112056732 0.4698333442211151 0.7809666991233826
O979 O 0.3070000112056732 0.8031666278839111 0.11430000513792038
O980 O 0.3070000112056732 0.8031666278839111 0.4476333558559418
O981 O 0.3070000112056732 0.8031666278839111 0.7809666991233826
O982 O 0.640333354473114 0.13650000095367432 0.11430000513792038
O983 O 0.640333354473114 0.13650000095367432 0.4476333558559418
O984 O 0.640333354473114 0.13650000095367432 0.7809666991233826
O985 O 0.640333354473114 0.4698333442211151 0.11430000513792038
O986 O 0.640333354473114 0.4698333442211151 0.4476333558559418
O987 O 0.640333354473114 0.4698333442211151 0.7809666991233826
O988 O 0.640333354473114 0.8031666278839111 0.11430000513792038
O989 O 0.640333354473114 0.8031666278839111 0.4476333558559418
O990 O 0.640333354473114 0.8031666278839111 0.7809666991233826
O991 O 0.9736666679382324 0.13650000095367432 0.11430000513792038
O992 O 0.9736666679382324 0.13650000095367432 0.4476333558559418
O993 O 0.9736666679382324 0.13650000095367432 0.7809666991233826
O994 O 0.9736666679382324 0.4698333442211151 0.11430000513792038
O995 O 0.9736666679382324 0.4698333442211151 0.4476333558559418
O996 O 0.9736666679382324 0.4698333442211151 0.7809666991233826
O997 O 0.9736666679382324 0.8031666278839111 0.11430000513792038
O998 O 0.9736666679382324 0.8031666278839111 0.4476333558559418
O999 O 0.9736666679382324 0.8031666278839111 0.7809666991233826
O1000 O 0.3070000112056732 0.13650000095367432 0.219033345580101
O1001 O 0.3070000112056732 0.13650000095367432 0.5523666739463806
O1002 O 0.3070000112056732 0.13650000095367432 0.885699987411499
O1003 O 0.3070000112056732 0.4698333442211151 0.219033345580101
O1004 O 0.3070000112056732 0.4698333442211151 0.5523666739463806
O1005 O 0.3070000112056732 0.4698333442211151 0.885699987411499
O1006 O 0.3070000112056732 0.8031666278839111 0.219033345580101
O1007 O 0.3070000112056732 0.8031666278839111 0.5523666739463806
O1008 O 0.3070000112056732 0.8031666278839111 0.885699987411499
O1009 O 0.640333354473114 0.13650000095367432 0.219033345580101
O1010 O 0.640333354473114 0.13650000095367432 0.5523666739463806
O1011 O 0.640333354473114 0.13650000095367432 0.885699987411499
O1012 O 0.640333354473114 0.4698333442211151 0.219033345580101
O1013 O 0.640333354473114 0.4698333442211151 0.5523666739463806
O1014 O 0.640333354473114 0.4698333442211151 0.885699987411499
O1015 O 0.640333354473114 0.8031666278839111 0.219033345580101
O1016 O 0.640333354473114 0.8031666278839111 0.5523666739463806
O1017 O 0.640333354473114 0.8031666278839111 0.885699987411499
O1018 O 0.9736666679382324 0.13650000095367432 0.219033345580101
O1019 O 0.9736666679382324 0.13650000095367432 0.5523666739463806
O1020 O 0.9736666679382324 0.13650000095367432 0.885699987411499
O1021 O 0.9736666679382324 0.4698333442211151 0.219033345580101
O1022 O 0.9736666679382324 0.4698333442211151 0.5523666739463806
O1023 O 0.9736666679382324 0.4698333442211151 0.885699987411499
O1024 O 0.9736666679382324 0.8031666278839111 0.219033345580101
O1025 O 0.9736666679382324 0.8031666278839111 0.5523666739463806
O1026 O 0.9736666679382324 0.8031666278839111 0.885699987411499
O1027 O 0.3070000112056732 0.19683332741260529 0.05236667022109032
O1028 O 0.3070000112056732 0.19683332741260529 0.385699987411499
O1029 O 0.3070000112056732 0.19683332741260529 0.7190333008766174
O1030 O 0.3070000112056732 0.5301666855812073 0.05236667022109032
O1031 O 0.3070000112056732 0.5301666855812073 0.385699987411499
O1032 O 0.3070000112056732 0.5301666855812073 0.7190333008766174
O1033 O 0.3070000112056732 0.8635000586509705 0.05236667022109032
O1034 O 0.3070000112056732 0.8635000586509705 0.385699987411499
O1035 O 0.3070000112056732 0.8635000586509705 0.7190333008766174
O1036 O 0.640333354473114 0.19683332741260529 0.05236667022109032
O1037 O 0.640333354473114 0.19683332741260529 0.385699987411499
O1038 O 0.640333354473114 0.19683332741260529 0.7190333008766174
O1039 O 0.640333354473114 0.5301666855812073 0.05236667022109032
O1040 O 0.640333354473114 0.5301666855812073 0.385699987411499
O1041 O 0.640333354473114 0.5301666855812073 0.7190333008766174
O1042 O 0.640333354473114 0.8635000586509705 0.05236667022109032
O1043 O 0.640333354473114 0.8635000586509705 0.385699987411499
O1044 O 0.640333354473114 0.8635000586509705 0.7190333008766174
O1045 O 0.9736666679382324 0.19683332741260529 0.05236667022109032
O1046 O 0.9736666679382324 0.19683332741260529 0.385699987411499
O1047 O 0.9736666679382324 0.19683332741260529 0.7190333008766174
O1048 O 0.9736666679382324 0.5301666855812073 0.05236667022109032
O1049 O 0.9736666679382324 0.5301666855812073 0.385699987411499
O1050 O 0.9736666679382324 0.5301666855812073 0.7190333008766174
O1051 O 0.9736666679382324 0.8635000586509705 0.05236667022109032
O1052 O 0.9736666679382324 0.8635000586509705 0.385699987411499
O1053 O 0.9736666679382324 0.8635000586509705 0.7190333008766174
O1054 O 0.3070000112056732 0.19683332741260529 0.2809666693210602
O1055 O 0.3070000112056732 0.19683332741260529 0.614300012588501
O1056 O 0.3070000112056732 0.19683332741260529 0.9476333260536194
O1057 O 0.3070000112056732 0.5301666855812073 0.2809666693210602
O1058 O 0.3070000112056732 0.5301666855812073 0.614300012588501
O1059 O 0.3070000112056732 0.5301666855812073 0.9476333260536194
O1060 O 0.3070000112056732 0.8635000586509705 0.2809666693210602
O1061 O 0.3070000112056732 0.8635000586509705 0.614300012588501
O1062 O 0.3070000112056732 0.8635000586509705 0.9476333260536194
O1063 O 0.640333354473114 0.19683332741260529 0.2809666693210602
O1064 O 0.640333354473114 0.19683332741260529 0.614300012588501
O1065 O 0.640333354473114 0.19683332741260529 0.9476333260536194
O1066 O 0.640333354473114 0.5301666855812073 0.2809666693210602
O1067 O 0.640333354473114 0.5301666855812073 0.614300012588501
O1068 O 0.640333354473114 0.5301666855812073 0.9476333260536194
O1069 O 0.640333354473114 0.8635000586509705 0.2809666693210602
O1070 O 0.640333354473114 0.8635000586509705 0.614300012588501
O1071 O 0.640333354473114 0.8635000586509705 0.9476333260536194
O1072 O 0.9736666679382324 0.19683332741260529 0.2809666693210602
O1073 O 0.9736666679382324 0.19683332741260529 0.614300012588501
O1074 O 0.9736666679382324 0.19683332741260529 0.9476333260536194
O1075 O 0.9736666679382324 0.5301666855812073 0.2809666693210602
O1076 O 0.9736666679382324 0.5301666855812073 0.614300012588501
O1077 O 0.9736666679382324 0.5301666855812073 0.9476333260536194
O1078 O 0.9736666679382324 0.8635000586509705 0.2809666693210602
O1079 O 0.9736666679382324 0.8635000586509705 0.614300012588501
O1080 O 0.9736666679382324 0.8635000586509705 0.9476333260536194
Si1081 Si 0.0 0.1666666716337204 0.0833333358168602
Si1082 Si 0.0 0.1666666716337204 0.4166666567325592
Si1083 Si 0.0 0.1666666716337204 0.75
Si1084 Si 0.0 0.5 0.0833333358168602
Si1085 Si 0.0 0.5 0.4166666567325592
Si1086 Si 0.0 0.5 0.75
Si1087 Si 0.0 0.8333333134651184 0.0833333358168602
Si1088 Si 0.0 0.8333333134651184 0.4166666567325592
Si1089 Si 0.0 0.8333333134651184 0.75
Si1090 Si 0.3333333432674408 0.1666666716337204 0.0833333358168602
Si1091 Si 0.3333333432674408 0.1666666716337204 0.4166666567325592
Si1092 Si 0.3333333432674408 0.1666666716337204 0.75
Si1093 Si 0.3333333432674408 0.5 0.0833333358168602
Si1094 Si 0.3333333432674408 0.5 0.4166666567325592
Si1095 Si 0.3333333432674408 0.5 0.75
Si1096 Si 0.3333333432674408 0.8333333134651184 0.0833333358168602
Si1097 Si 0.3333333432674408 0.8333333134651184 0.4166666567325592
Si1098 Si 0.3333333432674408 0.8333333134651184 0.75
Si1099 Si 0.6666666865348816 0.1666666716337204 0.0833333358168602
Si1100 Si 0.6666666865348816 0.1666666716337204 0.4166666567325592
Si1101 Si 0.6666666865348816 0.1666666716337204 0.75
Si1102 Si 0.6666666865348816 0.5 0.0833333358168602
Si1103 Si 0.6666666865348816 0.5 0.4166666567325592
Si1104 Si 0.6666666865348816 0.5 0.75
Si1105 Si 0.6666666865348816 0.8333333134651184 0.0833333358168602
Si1106 Si 0.6666666865348816 0.8333333134651184 0.4166666567325592
Si1107 Si 0.6666666865348816 0.8333333134651184 0.75
Si1108 Si 0.0 0.1666666716337204 0.25
Si1109 Si 0.0 0.1666666716337204 0.5833333134651184
Si1110 Si 0.0 0.1666666716337204 0.9166666865348816
Si1111 Si 0.0 0.5 0.25
Si1112 Si 0.0 0.5 0.5833333134651184
Si1113 Si 0.0 0.5 0.9166666865348816
Si1114 Si 0.0 0.8333333134651184 0.25
Si1115 Si 0.0 0.8333333134651184 0.5833333134651184
Si1116 Si 0.0 0.8333333134651184 0.9166666865348816
Si1117 Si 0.3333333432674408 0.1666666716337204 0.25
Si1118 Si 0.3333333432674408 0.1666666716337204 0.5833333134651184
Si1119 Si 0.3333333432674408 0.1666666716337204 0.9166666865348816
Si1120 Si 0.3333333432674408 0.5 0.25
Si1121 Si 0.3333333432674408 0.5 0.5833333134651184
Si1122 Si 0.3333333432674408 0.5 0.9166666865348816
Si1123 Si 0.3333333432674408 0.8333333134651184 0.25
Si1124 Si 0.3333333432674408 0.8333333134651184 0.5833333134651184
Si1125 Si 0.3333333432674408 0.8333333134651184 0.9166666865348816
Si1126 Si 0.6666666865348816 0.1666666716337204 0.25
Si1127 Si 0.6666666865348816 0.1666666716337204 0.5833333134651184
Si1128 Si 0.6666666865348816 0.1666666716337204 0.9166666865348816
Si1129 Si 0.6666666865348816 0.5 0.25
Si1130 Si 0.6666666865348816 0.5 0.5833333134651184
Si1131 Si 0.6666666865348816 0.5 0.9166666865348816
Si1132 Si 0.6666666865348816 0.8333333134651184 0.25
Si1133 Si 0.6666666865348816 0.8333333134651184 0.5833333134651184
Si1134 Si 0.6666666865348816 0.8333333134651184 0.9166666865348816
Si1135 Si 0.07159999758005142 0.13136667013168335 0.050300002098083496
Si1136 Si 0.07159999758005142 0.13136667013168335 0.3836333453655243
Si1137 Si 0.07159999758005142 0.13136667013168335 0.7169666290283203
Si1138 Si 0.07159999758005142 0.46469998359680176 0.050300002098083496
Si1139 Si 0.07159999758005142 0.46469998359680176 0.3836333453655243
Si1140 Si 0.07159999758005142 0.46469998359680176 0.7169666290283203
Si1141 Si 0.07159999758005142 0.7980332970619202 0.050300002098083496
Si1142 Si 0.07159999758005142 0.7980332970619202 0.3836333453655243
Si1143 Si 0.07159999758005142 0.7980332970619202 0.7169666290283203
Si1144 Si 0.4049333333969116 0.13136667013168335 0.050300002098083496
Si1145 Si 0.4049333333969116 0.13136667013168335 0.3836333453655243
Si1146 Si 0.4049333333969116 0.13136667013168335 0.7169666290283203
Si1147 Si 0.4049333333969116 0.46469998359680176 0.050300002098083496
Si1148 Si 0.4049333333969116 0.46469998359680176 0.3836333453655243
Si1149 Si 0.4049333333969116 0.46469998359680176 0.7169666290283203
Si1150 Si 0.4049333333969116 0.7980332970619202 0.050300002098083496
Si1151 Si 0.4049333333969116 0.7980332970619202 0.3836333453655243
Si1152 Si 0.4049333333969116 0.7980332970619202 0.7169666290283203
Si1153 Si 0.73826664686203 0.13136667013168335 0.050300002098083496
Si1154 Si 0.73826664686203 0.13136667013168335 0.3836333453655243
Si1155 Si 0.73826664686203 0.13136667013168335 0.7169666290283203
Si1156 Si 0.73826664686203 0.46469998359680176 0.050300002098083496
Si1157 Si 0.73826664686203 0.46469998359680176 0.3836333453655243
Si1158 Si 0.73826664686203 0.46469998359680176 0.7169666290283203
Si1159 Si 0.73826664686203 0.7980332970619202 0.050300002098083496
Si1160 Si 0.73826664686203 0.7980332970619202 0.3836333453655243
Si1161 Si 0.73826664686203 0.7980332970619202 0.7169666290283203
Si1162 Si 0.07159999758005142 0.13136667013168335 0.2830333411693573
Si1163 Si 0.07159999758005142 0.13136667013168335 0.6163666844367981
Si1164 Si 0.07159999758005142 0.13136667013168335 0.9497000575065613
Si1165 Si 0.07159999758005142 0.46469998359680176 0.2830333411693573
Si1166 Si 0.07159999758005142 0.46469998359680176 0.6163666844367981
Si1167 Si 0.07159999758005142 0.46469998359680176 0.9497000575065613
Si1168 Si 0.07159999758005142 0.7980332970619202 0.2830333411693573
Si1169 Si 0.07159999758005142 0.7980332970619202 0.6163666844367981
Si1170 Si 0.07159999758005142 0.7980332970619202 0.9497000575065613
Si1171 Si 0.4049333333969116 0.13136667013168335 0.2830333411693573
Si1172 Si 0.4049333333969116 0.13136667013168335 0.6163666844367981
Si1173 Si 0.4049333333969116 0.13136667013168335 0.9497000575065613
Si1174 Si 0.4049333333969116 0.46469998359680176 0.2830333411693573
Si1175 Si 0.4049333333969116 0.46469998359680176 0.6163666844367981
Si1176 Si 0.4049333333969116 0.46469998359680176 0.9497000575065613
Si1177 Si 0.4049333333969116 0.7980332970619202 0.2830333411693573
Si1178 Si 0.4049333333969116 0.7980332970619202 0.6163666844367981
Si1179 Si 0.4049333333969116 0.7980332970619202 0.9497000575065613
Si1180 Si 0.73826664686203 0.13136667013168335 0.2830333411693573
Si1181 Si 0.73826664686203 0.13136667013168335 0.6163666844367981
Si1182 Si 0.73826664686203 0.13136667013168335 0.9497000575065613
Si1183 Si 0.73826664686203 0.46469998359680176 0.2830333411693573
Si1184 Si 0.73826664686203 0.46469998359680176 0.6163666844367981
Si1185 Si 0.73826664686203 0.46469998359680176 0.9497000575065613
Si1186 Si 0.73826664686203 0.7980332970619202 0.2830333411693573
Si1187 Si 0.73826664686203 0.7980332970619202 0.6163666844367981
Si1188 Si 0.73826664686203 0.7980332970619202 0.9497000575065613
Si1189 Si 0.07159999758005142 0.20196665823459625 0.1163666620850563
Si1190 Si 0.07159999758005142 0.20196665823459625 0.4496999979019165
Si1191 Si 0.07159999758005142 0.20196665823459625 0.7830333709716797
Si1192 Si 0.07159999758005142 0.5353000164031982 0.1163666620850563
Si1193 Si 0.07159999758005142 0.5353000164031982 0.4496999979019165
Si1194 Si 0.07159999758005142 0.5353000164031982 0.7830333709716797
Si1195 Si 0.07159999758005142 0.8686333298683167 0.1163666620850563
Si1196 Si 0.07159999758005142 0.8686333298683167 0.4496999979019165
Si1197 Si 0.07159999758005142 0.8686333298683167 0.7830333709716797
Si1198 Si 0.4049333333969116 0.20196665823459625 0.1163666620850563
Si1199 Si 0.4049333333969116 0.20196665823459625 0.4496999979019165
Si1200 Si 0.4049333333969116 0.20196665823459625 0.7830333709716797
Si1201 Si 0.4049333333969116 0.5353000164031982 0.1163666620850563
Si1202 Si 0.4049333333969116 0.5353000164031982 0.4496999979019165
Si1203 Si 0.4049333333969116 0.5353000164031982 0.7830333709716797
Si1204 Si 0.4049333333969116 0.8686333298683167 0.1163666620850563
Si1205 Si 0.4049333333969116 0.8686333298683167 0.4496999979019165
Si1206 Si 0.4049333333969116 0.8686333298683167 0.7830333709716797
Si1207 Si 0.73826664686203 0.20196665823459625 0.1163666620850563
Si1208 Si 0.73826664686203 0.20196665823459625 0.4496999979019165
Si1209 Si 0.73826664686203 0.20196665823459625 0.7830333709716797
Si1210 Si 0.73826664686203 0.5353000164031982 0.1163666620850563
Si1211 Si 0.73826664686203 0.5353000164031982 0.4496999979019165
Si1212 Si 0.73826664686203 0.5353000164031982 0.7830333709716797
Si1213 Si 0.73826664686203 0.8686333298683167 0.1163666620850563
Si1214 Si 0.73826664686203 0.8686333298683167 0.4496999979019165
Si1215 Si 0.73826664686203 0.8686333298683167 0.7830333709716797
Si1216 Si 0.07159999758005142 0.20196665823459625 0.2169666737318039
Si1217 Si 0.07159999758005142 0.20196665823459625 0.5503000020980835
Si1218 Si 0.07159999758005142 0.20196665823459625 0.8836333155632019
Si1219 Si 0.07159999758005142 0.5353000164031982 0.2169666737318039
Si1220 Si 0.07159999758005142 0.5353000164031982 0.5503000020980835
Si1221 Si 0.07159999758005142 0.5353000164031982 0.8836333155632019
Si1222 Si 0.07159999758005142 0.8686333298683167 0.2169666737318039
Si1223 Si 0.07159999758005142 0.8686333298683167 0.5503000020980835
Si1224 Si 0.07159999758005142 0.8686333298683167 0.8836333155632019
Si1225 Si 0.4049333333969116 0.20196665823459625 0.2169666737318039
Si1226 Si 0.4049333333969116 0.20196665823459625 0.5503000020980835
Si1227 Si 0.4049333333969116 0.20196665823459625 0.8836333155632019
Si1228 Si 0.4049333333969116 0.5353000164031982 0.2169666737318039
Si1229 Si 0.4049333333969116 0.5353000164031982 0.5503000020980835
Si1230 Si 0.4049333333969116 0.5353000164031982 0.8836333155632019
Si1231 Si 0.4049333333969116 0.8686333298683167 0.2169666737318039
Si1232 Si 0.4049333333969116 0.8686333298683167 0.5503000020980835
Si1233 Si 0.4049333333969116 0.8686333298683167 0.8836333155632019
Si1234 Si 0.73826664686203 0.20196665823459625 0.2169666737318039
Si1235 Si 0.73826664686203 0.20196665823459625 0.5503000020980835
Si1236 Si 0.73826664686203 0.20196665823459625 0.8836333155632019
Si1237 Si 0.73826664686203 0.5353000164031982 0.2169666737318039
Si1238 Si 0.73826664686203 0.5353000164031982 0.5503000020980835
Si1239 Si 0.73826664686203 0.5353000164031982 0.8836333155632019
Si1240 Si 0.73826664686203 0.8686333298683167 0.2169666737318039
Si1241 Si 0.73826664686203 0.8686333298683167 0.5503000020980835
Si1242 Si 0.73826664686203 0.8686333298683167 0.8836333155632019
Si1243 Si 0.09506666660308838 0.03529999777674675 0.050300002098083496
Si1244 Si 0.09506666660308838 0.03529999777674675 0.3836333453655243
Si1245 Si 0.09506666660308838 0.03529999777674675 0.7169666290283203
Si1246 Si 0.09506666660308838 0.36863335967063904 0.050300002098083496
Si1247 Si 0.09506666660308838 0.36863335967063904 0.3836333453655243
Si1248 Si 0.09506666660308838 0.36863335967063904 0.7169666290283203
Si1249 Si 0.09506666660308838 0.7019667029380798 0.050300002098083496
Si1250 Si 0.09506666660308838 0.7019667029380798 0.3836333453655243
Si1251 Si 0.09506666660308838 0.7019667029380798 0.7169666290283203
Si1252 Si 0.4284000098705292 0.03529999777674675 0.050300002098083496
Si1253 Si 0.4284000098705292 0.03529999777674675 0.3836333453655243
Si1254 Si 0.4284000098705292 0.03529999777674675 0.7169666290283203
Si1255 Si 0.4284000098705292 0.36863335967063904 0.050300002098083496
Si1256 Si 0.4284000098705292 0.36863335967063904 0.3836333453655243
Si1257 Si 0.4284000098705292 0.36863335967063904 0.7169666290283203
Si1258 Si 0.4284000098705292 0.7019667029380798 0.050300002098083496
Si1259 Si 0.4284000098705292 0.7019667029380798 0.3836333453655243
Si1260 Si 0.4284000098705292 0.7019667029380798 0.7169666290283203
Si1261 Si 0.76173335313797 0.03529999777674675 0.050300002098083496
Si1262 Si 0.76173335313797 0.03529999777674675 0.3836333453655243
Si1263 Si 0.76173335313797 0.03529999777674675 0.7169666290283203
Si1264 Si 0.76173335313797 0.36863335967063904 0.050300002098083496
Si1265 Si 0.76173335313797 0.36863335967063904 0.3836333453655243
Si1266 Si 0.76173335313797 0.36863335967063904 0.7169666290283203
Si1267 Si 0.76173335313797 0.7019667029380798 0.050300002098083496
Si1268 Si 0.76173335313797 0.7019667029380798 0.3836333453655243
Si1269 Si 0.76173335313797 0.7019667029380798 0.7169666290283203
Si1270 Si 0.09506666660308838 0.03529999777674675 0.2830333411693573
Si1271 Si 0.09506666660308838 0.03529999777674675 0.6163666844367981
Si1272 Si 0.09506666660308838 0.03529999777674675 0.9497000575065613
Si1273 Si 0.09506666660308838 0.36863335967063904 0.2830333411693573
Si1274 Si 0.09506666660308838 0.36863335967063904 0.6163666844367981
Si1275 Si 0.09506666660308838 0.36863335967063904 0.9497000575065613
Si1276 Si 0.09506666660308838 0.7019667029380798 0.2830333411693573
Si1277 Si 0.09506666660308838 0.7019667029380798 0.6163666844367981
Si1278 Si 0.09506666660308838 0.7019667029380798 0.9497000575065613
Si1279 Si 0.4284000098705292 0.03529999777674675 0.2830333411693573
Si1280 Si 0.4284000098705292 0.03529999777674675 0.6163666844367981
Si1281 Si 0.4284000098705292 0.03529999777674675 0.9497000575065613
Si1282 Si 0.4284000098705292 0.36863335967063904 0.2830333411693573
Si1283 Si 0.4284000098705292 0.36863335967063904 0.6163666844367981
Si1284 Si 0.4284000098705292 0.36863335967063904 0.9497000575065613
Si1285 Si 0.4284000098705292 0.7019667029380798 0.2830333411693573
Si1286 Si 0.4284000098705292 0.7019667029380798 0.6163666844367981
Si1287 Si 0.4284000098705292 0.7019667029380798 0.9497000575065613
Si1288 Si 0.76173335313797 0.03529999777674675 0.2830333411693573
Si1289 Si 0.76173335313797 0.03529999777674675 0.6163666844367981
Si1290 Si 0.76173335313797 0.03529999777674675 0.9497000575065613
Si1291 Si 0.76173335313797 0.36863335967063904 0.2830333411693573
Si1292 Si 0.76173335313797 0.36863335967063904 0.6163666844367981
Si1293 Si 0.76173335313797 0.36863335967063904 0.9497000575065613
Si1294 Si 0.76173335313797 0.7019667029380798 0.2830333411693573
Si1295 Si 0.76173335313797 0.7019667029380798 0.6163666844367981
Si1296 Si 0.76173335313797 0.7019667029380798 0.9497000575065613
Si1297 Si 0.09506666660308838 0.29803332686424255 0.1163666620850563
Si1298 Si 0.09506666660308838 0.29803332686424255 0.4496999979019165
Si1299 Si 0.09506666660308838 0.29803332686424255 0.7830333709716797
Si1300 Si 0.09506666660308838 0.6313666701316833 0.1163666620850563
Si1301 Si 0.09506666660308838 0.6313666701316833 0.4496999979019165
Si1302 Si 0.09506666660308838 0.6313666701316833 0.7830333709716797
Si1303 Si 0.09506666660308838 0.9646999835968018 0.1163666620850563
Si1304 Si 0.09506666660308838 0.9646999835968018 0.4496999979019165
Si1305 Si 0.09506666660308838 0.9646999835968018 0.7830333709716797
Si1306 Si 0.4284000098705292 0.29803332686424255 0.1163666620850563
Si1307 Si 0.4284000098705292 0.29803332686424255 0.4496999979019165
Si1308 Si 0.4284000098705292 0.29803332686424255 0.7830333709716797
Si1309 Si 0.4284000098705292 0.6313666701316833 0.1163666620850563
Si1310 Si 0.4284000098705292 0.6313666701316833 0.4496999979019165
Si1311 Si 0.4284000098705292 0.6313666701316833 0.7830333709716797
Si1312 Si 0.4284000098705292 0.9646999835968018 0.1163666620850563
Si1313 Si 0.4284000098705292 0.9646999835968018 0.4496999979019165
Si1314 Si 0.4284000098705292 0.9646999835968018 0.7830333709716797
Si1315 Si 0.76173335313797 0.29803332686424255 0.1163666620850563
Si1316 Si 0.76173335313797 0.29803332686424255 0.4496999979019165
Si1317 Si 0.76173335313797 0.29803332686424255 0.7830333709716797
Si1318 Si 0.76173335313797 0.6313666701316833 0.1163666620850563
Si1319 Si 0.76173335313797 0.6313666701316833 0.4496999979019165
Si1320 Si 0.76173335313797 0.6313666701316833 0.7830333709716797
Si1321 Si 0.76173335313797 0.9646999835968018 0.1163666620850563
Si1322 Si 0.76173335313797 0.9646999835968018 0.4496999979019165
Si1323 Si 0.76173335313797 0.9646999835968018 0.7830333709716797
Si1324 Si 0.09506666660308838 0.29803332686424255 0.2169666737318039
Si1325 Si 0.09506666660308838 0.29803332686424255 0.5503000020980835
Si1326 Si 0.09506666660308838 0.29803332686424255 0.8836333155632019
Si1327 Si 0.09506666660308838 0.6313666701316833 0.2169666737318039
Si1328 Si 0.09506666660308838 0.6313666701316833 0.5503000020980835
Si1329 Si 0.09506666660308838 0.6313666701316833 0.8836333155632019
Si1330 Si 0.09506666660308838 0.9646999835968018 0.2169666737318039
Si1331 Si 0.09506666660308838 0.9646999835968018 0.5503000020980835
Si1332 Si 0.09506666660308838 0.9646999835968018 0.8836333155632019
Si1333 Si 0.4284000098705292 0.29803332686424255 0.2169666737318039
Si1334 Si 0.4284000098705292 0.29803332686424255 0.5503000020980835
Si1335 Si 0.4284000098705292 0.29803332686424255 0.8836333155632019
Si1336 Si 0.4284000098705292 0.6313666701316833 0.2169666737318039
Si1337 Si 0.4284000098705292 0.6313666701316833 0.5503000020980835
Si1338 Si 0.4284000098705292 0.6313666701316833 0.8836333155632019
Si1339 Si 0.4284000098705292 0.9646999835968018 0.2169666737318039
Si1340 Si 0.4284000098705292 0.9646999835968018 0.5503000020980835
Si1341 Si 0.4284000098705292 0.9646999835968018 0.8836333155632019
Si1342 Si 0.76173335313797 0.29803332686424255 0.2169666737318039
Si1343 Si 0.76173335313797 0.29803332686424255 0.5503000020980835
Si1344 Si 0.76173335313797 0.29803332686424255 0.8836333155632019
Si1345 Si 0.76173335313797 0.6313666701316833 0.2169666737318039
Si1346 Si 0.76173335313797 0.6313666701316833 0.5503000020980835
Si1347 Si 0.76173335313797 0.6313666701316833 0.8836333155632019
Si1348 Si 0.76173335313797 0.9646999835968018 0.2169666737318039
Si1349 Si 0.76173335313797 0.9646999835968018 0.5503000020980835
Si1350 Si 0.76173335313797 0.9646999835968018 0.8836333155632019
Si1351 Si 0.1666666716337204 0.0 0.0833333358168602
Si1352 Si 0.1666666716337204 0.0 0.4166666567325592
Si1353 Si 0.1666666716337204 0.0 0.75
Si1354 Si 0.1666666716337204 0.3333333432674408 0.0833333358168602
Si1355 Si 0.1666666716337204 0.3333333432674408 0.4166666567325592
Si1356 Si 0.1666666716337204 0.3333333432674408 0.75
Si1357 Si 0.1666666716337204 0.6666666865348816 0.0833333358168602
Si1358 Si 0.1666666716337204 0.6666666865348816 0.4166666567325592
Si1359 Si 0.1666666716337204 0.6666666865348816 0.75
Si1360 Si 0.5 0.0 0.0833333358168602
Si1361 Si 0.5 0.0 0.4166666567325592
Si1362 Si 0.5 0.0 0.75
Si1363 Si 0.5 0.3333333432674408 0.0833333358168602
Si1364 Si 0.5 0.3333333432674408 0.4166666567325592
Si1365 Si 0.5 0.3333333432674408 0.75
Si1366 Si 0.5 0.6666666865348816 0.0833333358168602
Si1367 Si 0.5 0.6666666865348816 0.4166666567325592
Si1368 Si 0.5 0.6666666865348816 0.75
Si1369 Si 0.8333333134651184 0.0 0.0833333358168602
Si1370 Si 0.8333333134651184 0.0 0.4166666567325592
Si1371 Si 0.8333333134651184 0.0 0.75
Si1372 Si 0.8333333134651184 0.3333333432674408 0.0833333358168602
Si1373 Si 0.8333333134651184 0.3333333432674408 0.4166666567325592
Si1374 Si 0.8333333134651184 0.3333333432674408 0.75
Si1375 Si 0.8333333134651184 0.6666666865348816 0.0833333358168602
Si1376 Si 0.8333333134651184 0.6666666865348816 0.4166666567325592
Si1377 Si 0.8333333134651184 0.6666666865348816 0.75
Si1378 Si 0.1666666716337204 0.0 0.25
Si1379 Si 0.1666666716337204 0.0 0.5833333134651184
Si1380 Si 0.1666666716337204 0.0 0.9166666865348816
Si1381 Si 0.1666666716337204 0.3333333432674408 0.25
Si1382 Si 0.1666666716337204 0.3333333432674408 0.5833333134651184
Si1383 Si 0.1666666716337204 0.3333333432674408 0.9166666865348816
Si1384 Si 0.1666666716337204 0.6666666865348816 0.25
Si1385 Si 0.1666666716337204 0.6666666865348816 0.5833333134651184
Si1386 Si 0.1666666716337204 0.6666666865348816 0.9166666865348816
Si1387 Si 0.5 0.0 0.25
Si1388 Si 0.5 0.0 0.5833333134651184
Si1389 Si 0.5 0.0 0.9166666865348816
Si1390 Si 0.5 0.3333333432674408 0.25
Si1391 Si 0.5 0.3333333432674408 0.5833333134651184
Si1392 Si 0.5 0.3333333432674408 0.9166666865348816
Si1393 Si 0.5 0.6666666865348816 0.25
Si1394 Si 0.5 0.6666666865348816 0.5833333134651184
Si1395 Si 0.5 0.6666666865348816 0.9166666865348816
Si1396 Si 0.8333333134651184 0.0 0.25
Si1397 Si 0.8333333134651184 0.0 0.5833333134651184
Si1398 Si 0.8333333134651184 0.0 0.9166666865348816
Si1399 Si 0.8333333134651184 0.3333333432674408 0.25
Si1400 Si 0.8333333134651184 0.3333333432674408 0.5833333134651184
Si1401 Si 0.8333333134651184 0.3333333432674408 0.9166666865348816
Si1402 Si 0.8333333134651184 0.6666666865348816 0.25
Si1403 Si 0.8333333134651184 0.6666666865348816 0.5833333134651184
Si1404 Si 0.8333333134651184 0.6666666865348816 0.9166666865348816
Si1405 Si 0.1666666716337204 0.3333333432674408 0.0833333358168602
Si1406 Si 0.1666666716337204 0.3333333432674408 0.4166666567325592
Si1407 Si 0.1666666716337204 0.3333333432674408 0.75
Si1408 Si 0.1666666716337204 0.6666666865348816 0.0833333358168602
Si1409 Si 0.1666666716337204 0.6666666865348816 0.4166666567325592
Si1410 Si 0.1666666716337204 0.6666666865348816 0.75
Si1411 Si 0.1666666716337204 1.0 0.0833333358168602
Si1412 Si 0.1666666716337204 1.0 0.4166666567325592
Si1413 Si 0.1666666716337204 1.0 0.75
Si1414 Si 0.5 0.3333333432674408 0.0833333358168602
Si1415 Si 0.5 0.3333333432674408 0.4166666567325592
Si1416 Si 0.5 0.3333333432674408 0.75
Si1417 Si 0.5 0.6666666865348816 0.0833333358168602
Si1418 Si 0.5 0.6666666865348816 0.4166666567325592
Si1419 Si 0.5 0.6666666865348816 0.75
Si1420 Si 0.5 1.0 0.0833333358168602
Si1421 Si 0.5 1.0 0.4166666567325592
Si1422 Si 0.5 1.0 0.75
Si1423 Si 0.8333333134651184 0.3333333432674408 0.0833333358168602
Si1424 Si 0.8333333134651184 0.3333333432674408 0.4166666567325592
Si1425 Si 0.8333333134651184 0.3333333432674408 0.75
Si1426 Si 0.8333333134651184 0.6666666865348816 0.0833333358168602
Si1427 Si 0.8333333134651184 0.6666666865348816 0.4166666567325592
Si1428 Si 0.8333333134651184 0.6666666865348816 0.75
Si1429 Si 0.8333333134651184 1.0 0.0833333358168602
Si1430 Si 0.8333333134651184 1.0 0.4166666567325592
Si1431 Si 0.8333333134651184 1.0 0.75
Si1432 Si 0.1666666716337204 0.3333333432674408 0.25
Si1433 Si 0.1666666716337204 0.3333333432674408 0.5833333134651184
Si1434 Si 0.1666666716337204 0.3333333432674408 0.9166666865348816
Si1435 Si 0.1666666716337204 0.6666666865348816 0.25
Si1436 Si 0.1666666716337204 0.6666666865348816 0.5833333134651184
Si1437 Si 0.1666666716337204 0.6666666865348816 0.9166666865348816
Si1438 Si 0.1666666716337204 1.0 0.25
Si1439 Si 0.1666666716337204 1.0 0.5833333134651184
Si1440 Si 0.1666666716337204 1.0 0.9166666865348816
Si1441 Si 0.5 0.3333333432674408 0.25
Si1442 Si 0.5 0.3333333432674408 0.5833333134651184
Si1443 Si 0.5 0.3333333432674408 0.9166666865348816
Si1444 Si 0.5 0.6666666865348816 0.25
Si1445 Si 0.5 0.6666666865348816 0.5833333134651184
Si1446 Si 0.5 0.6666666865348816 0.9166666865348816
Si1447 Si 0.5 1.0 0.25
Si1448 Si 0.5 1.0 0.5833333134651184
Si1449 Si 0.5 1.0 0.9166666865348816
Si1450 Si 0.8333333134651184 0.3333333432674408 0.25
Si1451 Si 0.8333333134651184 0.3333333432674408 0.5833333134651184
Si1452 Si 0.8333333134651184 0.3333333432674408 0.9166666865348816
Si1453 Si 0.8333333134651184 0.6666666865348816 0.25
Si1454 Si 0.8333333134651184 0.6666666865348816 0.5833333134651184
Si1455 Si 0.8333333134651184 0.6666666865348816 0.9166666865348816
Si1456 Si 0.8333333134651184 1.0 0.25
Si1457 Si 0.8333333134651184 1.0 0.5833333134651184
Si1458 Si 0.8333333134651184 1.0 0.9166666865348816
Si1459 Si 0.23826666176319122 0.03529999777674675 0.1163666620850563
Si1460 Si 0.23826666176319122 0.03529999777674675 0.4496999979019165
Si1461 Si 0.23826666176319122 0.03529999777674675 0.7830333709716797
Si1462 Si 0.23826666176319122 0.36863335967063904 0.1163666620850563
Si1463 Si 0.23826666176319122 0.36863335967063904 0.4496999979019165
Si1464 Si 0.23826666176319122 0.36863335967063904 0.7830333709716797
Si1465 Si 0.23826666176319122 0.7019667029380798 0.1163666620850563
Si1466 Si 0.23826666176319122 0.7019667029380798 0.4496999979019165
Si1467 Si 0.23826666176319122 0.7019667029380798 0.7830333709716797
Si1468 Si 0.5716000199317932 0.03529999777674675 0.1163666620850563
Si1469 Si 0.5716000199317932 0.03529999777674675 0.4496999979019165
Si1470 Si 0.5716000199317932 0.03529999777674675 0.7830333709716797
Si1471 Si 0.5716000199317932 0.36863335967063904 0.1163666620850563
Si1472 Si 0.5716000199317932 0.36863335967063904 0.4496999979019165
Si1473 Si 0.5716000199317932 0.36863335967063904 0.7830333709716797
Si1474 Si 0.5716000199317932 0.7019667029380798 0.1163666620850563
Si1475 Si 0.5716000199317932 0.7019667029380798 0.4496999979019165
Si1476 Si 0.5716000199317932 0.7019667029380798 0.7830333709716797
Si1477 Si 0.9049332737922668 0.03529999777674675 0.1163666620850563
Si1478 Si 0.9049332737922668 0.03529999777674675 0.4496999979019165
Si1479 Si 0.9049332737922668 0.03529999777674675 0.7830333709716797
Si1480 Si 0.9049332737922668 0.36863335967063904 0.1163666620850563
Si1481 Si 0.9049332737922668 0.36863335967063904 0.4496999979019165
Si1482 Si 0.9049332737922668 0.36863335967063904 0.7830333709716797
Si1483 Si 0.9049332737922668 0.7019667029380798 0.1163666620850563
Si1484 Si 0.9049332737922668 0.7019667029380798 0.4496999979019165
Si1485 Si 0.9049332737922668 0.7019667029380798 0.7830333709716797
Si1486 Si 0.23826666176319122 0.03529999777674675 0.2169666737318039
Si1487 Si 0.23826666176319122 0.03529999777674675 0.5503000020980835
Si1488 Si 0.23826666176319122 0.03529999777674675 0.8836333155632019
Si1489 Si 0.23826666176319122 0.36863335967063904 0.2169666737318039
Si1490 Si 0.23826666176319122 0.36863335967063904 0.5503000020980835
Si1491 Si 0.23826666176319122 0.36863335967063904 0.8836333155632019
Si1492 Si 0.23826666176319122 0.7019667029380798 0.2169666737318039
Si1493 Si 0.23826666176319122 0.7019667029380798 0.5503000020980835
Si1494 Si 0.23826666176319122 0.7019667029380798 0.8836333155632019
Si1495 Si 0.5716000199317932 0.03529999777674675 0.2169666737318039
Si1496 Si 0.5716000199317932 0.03529999777674675 0.5503000020980835
Si1497 Si 0.5716000199317932 0.03529999777674675 0.8836333155632019
Si1498 Si 0.5716000199317932 0.36863335967063904 0.2169666737318039
Si1499 Si 0.5716000199317932 0.36863335967063904 0.5503000020980835
Si1500 Si 0.5716000199317932 0.36863335967063904 0.8836333155632019
Si1501 Si 0.5716000199317932 0.7019667029380798 0.2169666737318039
Si1502 Si 0.5716000199317932 0.7019667029380798 0.5503000020980835
Si1503 Si 0.5716000199317932 0.7019667029380798 0.8836333155632019
Si1504 Si 0.9049332737922668 0.03529999777674675 0.2169666737318039
Si1505 Si 0.9049332737922668 0.03529999777674675 0.5503000020980835
Si1506 Si 0.9049332737922668 0.03529999777674675 0.8836333155632019
Si1507 Si 0.9049332737922668 0.36863335967063904 0.2169666737318039
Si1508 Si 0.9049332737922668 0.36863335967063904 0.5503000020980835
Si1509 Si 0.9049332737922668 0.36863335967063904 0.8836333155632019
Si1510 Si 0.9049332737922668 0.7019667029380798 0.2169666737318039
Si1511 Si 0.9049332737922668 0.7019667029380798 0.5503000020980835
Si1512 Si 0.9049332737922668 0.7019667029380798 0.8836333155632019
Si1513 Si 0.23826666176319122 0.29803332686424255 0.050300002098083496
Si1514 Si 0.23826666176319122 0.29803332686424255 0.3836333453655243
Si1515 Si 0.23826666176319122 0.29803332686424255 0.7169666290283203
Si1516 Si 0.23826666176319122 0.6313666701316833 0.050300002098083496
Si1517 Si 0.23826666176319122 0.6313666701316833 0.3836333453655243
Si1518 Si 0.23826666176319122 0.6313666701316833 0.7169666290283203
Si1519 Si 0.23826666176319122 0.9646999835968018 0.050300002098083496
Si1520 Si 0.23826666176319122 0.9646999835968018 0.3836333453655243
Si1521 Si 0.23826666176319122 0.9646999835968018 0.7169666290283203
Si1522 Si 0.5716000199317932 0.29803332686424255 0.050300002098083496
Si1523 Si 0.5716000199317932 0.29803332686424255 0.3836333453655243
Si1524 Si 0.5716000199317932 0.29803332686424255 0.7169666290283203
Si1525 Si 0.5716000199317932 0.6313666701316833 0.050300002098083496
Si1526 Si 0.5716000199317932 0.6313666701316833 0.3836333453655243
Si1527 Si 0.5716000199317932 0.6313666701316833 0.7169666290283203
Si1528 Si 0.5716000199317932 0.9646999835968018 0.050300002098083496
Si1529 Si 0.5716000199317932 0.9646999835968018 0.3836333453655243
Si1530 Si 0.5716000199317932 0.9646999835968018 0.7169666290283203
Si1531 Si 0.9049332737922668 0.29803332686424255 0.050300002098083496
Si1532 Si 0.9049332737922668 0.29803332686424255 0.3836333453655243
Si1533 Si 0.9049332737922668 0.29803332686424255 0.7169666290283203
Si1534 Si 0.9049332737922668 0.6313666701316833 0.050300002098083496
Si1535 Si 0.9049332737922668 0.6313666701316833 0.3836333453655243
Si1536 Si 0.9049332737922668 0.6313666701316833 0.7169666290283203
Si1537 Si 0.9049332737922668 0.9646999835968018 0.050300002098083496
Si1538 Si 0.9049332737922668 0.9646999835968018 0.3836333453655243
Si1539 Si 0.9049332737922668 0.9646999835968018 0.7169666290283203
Si1540 Si 0.23826666176319122 0.29803332686424255 0.2830333411693573
Si1541 Si 0.23826666176319122 0.29803332686424255 0.6163666844367981
Si1542 Si 0.23826666176319122 0.29803332686424255 0.9497000575065613
Si1543 Si 0.23826666176319122 0.6313666701316833 0.2830333411693573
Si1544 Si 0.23826666176319122 0.6313666701316833 0.6163666844367981
Si1545 Si 0.23826666176319122 0.6313666701316833 0.9497000575065613
Si1546 Si 0.23826666176319122 0.9646999835968018 0.2830333411693573
Si1547 Si 0.23826666176319122 0.9646999835968018 0.6163666844367981
Si1548 Si 0.23826666176319122 0.9646999835968018 0.9497000575065613
Si1549 Si 0.5716000199317932 0.29803332686424255 0.2830333411693573
Si1550 Si 0.5716000199317932 0.29803332686424255 0.6163666844367981
Si1551 Si 0.5716000199317932 0.29803332686424255 0.9497000575065613
Si1552 Si 0.5716000199317932 0.6313666701316833 0.2830333411693573
Si1553 Si 0.5716000199317932 0.6313666701316833 0.6163666844367981
Si1554 Si 0.5716000199317932 0.6313666701316833 0.9497000575065613
Si1555 Si 0.5716000199317932 0.9646999835968018 0.2830333411693573
Si1556 Si 0.5716000199317932 0.9646999835968018 0.6163666844367981
Si1557 Si 0.5716000199317932 0.9646999835968018 0.9497000575065613
Si1558 Si 0.9049332737922668 0.29803332686424255 0.2830333411693573
Si1559 Si 0.9049332737922668 0.29803332686424255 0.6163666844367981
Si1560 Si 0.9049332737922668 0.29803332686424255 0.9497000575065613
Si1561 Si 0.9049332737922668 0.6313666701316833 0.2830333411693573
Si1562 Si 0.9049332737922668 0.6313666701316833 0.6163666844367981
Si1563 Si 0.9049332737922668 0.6313666701316833 0.9497000575065613
Si1564 Si 0.9049332737922668 0.9646999835968018 0.2830333411693573
Si1565 Si 0.9049332737922668 0.9646999835968018 0.6163666844367981
Si1566 Si 0.9049332737922668 0.9646999835968018 0.9497000575065613
Si1567 Si 0.2617333233356476 0.13136667013168335 0.1163666620850563
Si1568 Si 0.2617333233356476 0.13136667013168335 0.4496999979019165
Si1569 Si 0.2617333233356476 0.13136667013168335 0.7830333709716797
Si1570 Si 0.2617333233356476 0.46469998359680176 0.1163666620850563
Si1571 Si 0.2617333233356476 0.46469998359680176 0.4496999979019165
Si1572 Si 0.2617333233356476 0.46469998359680176 0.7830333709716797
Si1573 Si 0.2617333233356476 0.7980332970619202 0.1163666620850563
Si1574 Si 0.2617333233356476 0.7980332970619202 0.4496999979019165
Si1575 Si 0.2617333233356476 0.7980332970619202 0.7830333709716797
Si1576 Si 0.5950666666030884 0.13136667013168335 0.1163666620850563
Si1577 Si 0.5950666666030884 0.13136667013168335 0.4496999979019165
Si1578 Si 0.5950666666030884 0.13136667013168335 0.7830333709716797
Si1579 Si 0.5950666666030884 0.46469998359680176 0.1163666620850563
Si1580 Si 0.5950666666030884 0.46469998359680176 0.4496999979019165
Si1581 Si 0.5950666666030884 0.46469998359680176 0.7830333709716797
Si1582 Si 0.5950666666030884 0.7980332970619202 0.1163666620850563
Si1583 Si 0.5950666666030884 0.7980332970619202 0.4496999979019165
Si1584 Si 0.5950666666030884 0.7980332970619202 0.7830333709716797
Si1585 Si 0.9284000396728516 0.13136667013168335 0.1163666620850563
Si1586 Si 0.9284000396728516 0.13136667013168335 0.4496999979019165
Si1587 Si 0.9284000396728516 0.13136667013168335 0.7830333709716797
Si1588 Si 0.9284000396728516 0.46469998359680176 0.1163666620850563
Si1589 Si 0.9284000396728516 0.46469998359680176 0.4496999979019165
Si1590 Si 0.9284000396728516 0.46469998359680176 0.7830333709716797
Si1591 Si 0.9284000396728516 0.7980332970619202 0.1163666620850563
Si1592 Si 0.9284000396728516 0.7980332970619202 0.4496999979019165
Si1593 Si 0.9284000396728516 0.7980332970619202 0.7830333709716797
Si1594 Si 0.2617333233356476 0.13136667013168335 0.2169666737318039
Si1595 Si 0.2617333233356476 0.13136667013168335 0.5503000020980835
Si1596 Si 0.2617333233356476 0.13136667013168335 0.8836333155632019
Si1597 Si 0.2617333233356476 0.46469998359680176 0.2169666737318039
Si1598 Si 0.2617333233356476 0.46469998359680176 0.5503000020980835
Si1599 Si 0.2617333233356476 0.46469998359680176 0.8836333155632019
Si1600 Si 0.2617333233356476 0.7980332970619202 0.2169666737318039
Si1601 Si 0.2617333233356476 0.7980332970619202 0.5503000020980835
Si1602 Si 0.2617333233356476 0.7980332970619202 0.8836333155632019
Si1603 Si 0.5950666666030884 0.13136667013168335 0.2169666737318039
Si1604 Si 0.5950666666030884 0.13136667013168335 0.5503000020980835
Si1605 Si 0.5950666666030884 0.13136667013168335 0.8836333155632019
Si1606 Si 0.5950666666030884 0.46469998359680176 0.2169666737318039
Si1607 Si 0.5950666666030884 0.46469998359680176 0.5503000020980835
Si1608 Si 0.5950666666030884 0.46469998359680176 0.8836333155632019
Si1609 Si 0.5950666666030884 0.7980332970619202 0.2169666737318039
Si1610 Si 0.5950666666030884 0.7980332970619202 0.5503000020980835
Si1611 Si 0.5950666666030884 0.7980332970619202 0.8836333155632019
Si1612 Si 0.9284000396728516 0.13136667013168335 0.2169666737318039
Si1613 Si 0.9284000396728516 0.13136667013168335 0.5503000020980835
Si1614 Si 0.9284000396728516 0.13136667013168335 0.8836333155632019
Si1615 Si 0.9284000396728516 0.46469998359680176 0.2169666737318039
Si1616 Si 0.9284000396728516 0.46469998359680176 0.5503000020980835
Si1617 Si 0.9284000396728516 0.46469998359680176 0.8836333155632019
Si1618 Si 0.9284000396728516 0.7980332970619202 0.2169666737318039
Si1619 Si 0.9284000396728516 0.7980332970619202 0.5503000020980835
Si1620 Si 0.9284000396728516 0.7980332970619202 0.8836333155632019
Si1621 Si 0.2617333233356476 0.20196665823459625 0.050300002098083496
Si1622 Si 0.2617333233356476 0.20196665823459625 0.3836333453655243
Si1623 Si 0.2617333233356476 0.20196665823459625 0.7169666290283203
Si1624 Si 0.2617333233356476 0.5353000164031982 0.050300002098083496
Si1625 Si 0.2617333233356476 0.5353000164031982 0.3836333453655243
Si1626 Si 0.2617333233356476 0.5353000164031982 0.7169666290283203
Si1627 Si 0.2617333233356476 0.8686333298683167 0.050300002098083496
Si1628 Si 0.2617333233356476 0.8686333298683167 0.3836333453655243
Si1629 Si 0.2617333233356476 0.8686333298683167 0.7169666290283203
Si1630 Si 0.5950666666030884 0.20196665823459625 0.050300002098083496
Si1631 Si 0.5950666666030884 0.20196665823459625 0.3836333453655243
Si1632 Si 0.5950666666030884 0.20196665823459625 0.7169666290283203
Si1633 Si 0.5950666666030884 0.5353000164031982 0.050300002098083496
Si1634 Si 0.5950666666030884 0.5353000164031982 0.3836333453655243
Si1635 Si 0.5950666666030884 0.5353000164031982 0.7169666290283203
Si1636 Si 0.5950666666030884 0.8686333298683167 0.050300002098083496
Si1637 Si 0.5950666666030884 0.8686333298683167 0.3836333453655243
Si1638 Si 0.5950666666030884 0.8686333298683167 0.7169666290283203
Si1639 Si 0.9284000396728516 0.20196665823459625 0.050300002098083496
Si1640 Si 0.9284000396728516 0.20196665823459625 0.3836333453655243
Si1641 Si 0.9284000396728516 0.20196665823459625 0.7169666290283203
Si1642 Si 0.9284000396728516 0.5353000164031982 0.050300002098083496
Si1643 Si 0.9284000396728516 0.5353000164031982 0.3836333453655243
Si1644 Si 0.9284000396728516 0.5353000164031982 0.7169666290283203
Si1645 Si 0.9284000396728516 0.8686333298683167 0.050300002098083496
Si1646 Si 0.9284000396728516 0.8686333298683167 0.3836333453655243
Si1647 Si 0.9284000396728516 0.8686333298683167 0.7169666290283203
Si1648 Si 0.2617333233356476 0.20196665823459625 0.2830333411693573
Si1649 Si 0.2617333233356476 0.20196665823459625 0.6163666844367981
Si1650 Si 0.2617333233356476 0.20196665823459625 0.9497000575065613
Si1651 Si 0.2617333233356476 0.5353000164031982 0.2830333411693573
Si1652 Si 0.2617333233356476 0.5353000164031982 0.6163666844367981
Si1653 Si 0.2617333233356476 0.5353000164031982 0.9497000575065613
Si1654 Si 0.2617333233356476 0.8686333298683167 0.2830333411693573
Si1655 Si 0.2617333233356476 0.8686333298683167 0.6163666844367981
Si1656 Si 0.2617333233356476 0.8686333298683167 0.9497000575065613
Si1657 Si 0.5950666666030884 0.20196665823459625 0.2830333411693573
Si1658 Si 0.5950666666030884 0.20196665823459625 0.6163666844367981
Si1659 Si 0.5950666666030884 0.20196665823459625 0.9497000575065613
Si1660 Si 0.5950666666030884 0.5353000164031982 0.2830333411693573
Si1661 Si 0.5950666666030884 0.5353000164031982 0.6163666844367981
Si1662 Si 0.5950666666030884 0.5353000164031982 0.9497000575065613
Si1663 Si 0.5950666666030884 0.8686333298683167 0.2830333411693573
Si1664 Si 0.5950666666030884 0.8686333298683167 0.6163666844367981
Si1665 Si 0.5950666666030884 0.8686333298683167 0.9497000575065613
Si1666 Si 0.9284000396728516 0.20196665823459625 0.2830333411693573
Si1667 Si 0.9284000396728516 0.20196665823459625 0.6163666844367981
Si1668 Si 0.9284000396728516 0.20196665823459625 0.9497000575065613
Si1669 Si 0.9284000396728516 0.5353000164031982 0.2830333411693573
Si1670 Si 0.9284000396728516 0.5353000164031982 0.6163666844367981
Si1671 Si 0.9284000396728516 0.5353000164031982 0.9497000575065613
Si1672 Si 0.9284000396728516 0.8686333298683167 0.2830333411693573
Si1673 Si 0.9284000396728516 0.8686333298683167 0.6163666844367981
Si1674 Si 0.9284000396728516 0.8686333298683167 0.9497000575065613
