data_image0
_symmetry_space_group_name_H-M    "P 1"
_symmetry_int_tables_number       1

loop_
 _symmetry_equiv_pos_as_xyz
 'x, y, z'

_cell_length_a	27.174
_cell_length_b	40.760999999999996
_cell_length_c	30.228
_cell_angle_alpha	90.0000
_cell_angle_beta	90.0000
_cell_angle_gamma	120.0000

loop_
 _atom_site_label
 _atom_site_type_symbol
 _atom_site_fract_x
 _atom_site_fract_y
 _atom_site_fract_z
O1 O 0.0 0.07073333114385605 0.06525000184774399
O2 O 0.0 0.07073333114385605 0.3152500092983246
O3 O 0.0 0.07073333114385605 0.5652499794960022
O4 O 0.0 0.07073333114385605 0.8152499794960022
O5 O 0.0 0.40406668186187744 0.06525000184774399
O6 O 0.0 0.40406668186187744 0.3152500092983246
O7 O 0.0 0.40406668186187744 0.5652499794960022
O8 O 0.0 0.40406668186187744 0.8152499794960022
O9 O 0.0 0.7373999953269958 0.06525000184774399
O10 O 0.0 0.7373999953269958 0.3152500092983246
O11 O 0.0 0.7373999953269958 0.5652499794960022
O12 O 0.0 0.7373999953269958 0.8152499794960022
O13 O 0.5 0.07073333114385605 0.06525000184774399
O14 O 0.5 0.07073333114385605 0.3152500092983246
O15 O 0.5 0.07073333114385605 0.5652499794960022
O16 O 0.5 0.07073333114385605 0.8152499794960022
O17 O 0.5 0.40406668186187744 0.06525000184774399
O18 O 0.5 0.40406668186187744 0.3152500092983246
O19 O 0.5 0.40406668186187744 0.5652499794960022
O20 O 0.5 0.40406668186187744 0.8152499794960022
O21 O 0.5 0.7373999953269958 0.06525000184774399
O22 O 0.5 0.7373999953269958 0.3152500092983246
O23 O 0.5 0.7373999953269958 0.5652499794960022
O24 O 0.5 0.7373999953269958 0.8152499794960022
O25 O 0.0 0.07073333114385605 0.1847500056028366
O26 O 0.0 0.07073333114385605 0.4347499907016754
O27 O 0.0 0.07073333114385605 0.6847500205039978
O28 O 0.0 0.07073333114385605 0.9347500205039978
O29 O 0.0 0.40406668186187744 0.1847500056028366
O30 O 0.0 0.40406668186187744 0.4347499907016754
O31 O 0.0 0.40406668186187744 0.6847500205039978
O32 O 0.0 0.40406668186187744 0.9347500205039978
O33 O 0.0 0.7373999953269958 0.1847500056028366
O34 O 0.0 0.7373999953269958 0.4347499907016754
O35 O 0.0 0.7373999953269958 0.6847500205039978
O36 O 0.0 0.7373999953269958 0.9347500205039978
O37 O 0.5 0.07073333114385605 0.1847500056028366
O38 O 0.5 0.07073333114385605 0.4347499907016754
O39 O 0.5 0.07073333114385605 0.6847500205039978
O40 O 0.5 0.07073333114385605 0.9347500205039978
O41 O 0.5 0.40406668186187744 0.1847500056028366
O42 O 0.5 0.40406668186187744 0.4347499907016754
O43 O 0.5 0.40406668186187744 0.6847500205039978
O44 O 0.5 0.40406668186187744 0.9347500205039978
O45 O 0.5 0.7373999953269958 0.1847500056028366
O46 O 0.5 0.7373999953269958 0.4347499907016754
O47 O 0.5 0.7373999953269958 0.6847500205039978
O48 O 0.5 0.7373999953269958 0.9347500205039978
O49 O 0.0 0.20430000126361847 0.125
O50 O 0.0 0.20430000126361847 0.375
O51 O 0.0 0.20430000126361847 0.625
O52 O 0.0 0.20430000126361847 0.875
O53 O 0.0 0.5376333594322205 0.125
O54 O 0.0 0.5376333594322205 0.375
O55 O 0.0 0.5376333594322205 0.625
O56 O 0.0 0.5376333594322205 0.875
O57 O 0.0 0.8709666728973389 0.125
O58 O 0.0 0.8709666728973389 0.375
O59 O 0.0 0.8709666728973389 0.625
O60 O 0.0 0.8709666728973389 0.875
O61 O 0.5 0.20430000126361847 0.125
O62 O 0.5 0.20430000126361847 0.375
O63 O 0.5 0.20430000126361847 0.625
O64 O 0.5 0.20430000126361847 0.875
O65 O 0.5 0.5376333594322205 0.125
O66 O 0.5 0.5376333594322205 0.375
O67 O 0.5 0.5376333594322205 0.625
O68 O 0.5 0.5376333594322205 0.875
O69 O 0.5 0.8709666728973389 0.125
O70 O 0.5 0.8709666728973389 0.375
O71 O 0.5 0.8709666728973389 0.625
O72 O 0.5 0.8709666728973389 0.875
O73 O 0.0 0.2785666584968567 0.05757499858736992
O74 O 0.0 0.2785666584968567 0.307574987411499
O75 O 0.0 0.2785666584968567 0.557574987411499
O76 O 0.0 0.2785666584968567 0.807574987411499
O77 O 0.0 0.6119000315666199 0.05757499858736992
O78 O 0.0 0.6119000315666199 0.307574987411499
O79 O 0.0 0.6119000315666199 0.557574987411499
O80 O 0.0 0.6119000315666199 0.807574987411499
O81 O 0.0 0.9452333450317383 0.05757499858736992
O82 O 0.0 0.9452333450317383 0.307574987411499
O83 O 0.0 0.9452333450317383 0.557574987411499
O84 O 0.0 0.9452333450317383 0.807574987411499
O85 O 0.5 0.2785666584968567 0.05757499858736992
O86 O 0.5 0.2785666584968567 0.307574987411499
O87 O 0.5 0.2785666584968567 0.557574987411499
O88 O 0.5 0.2785666584968567 0.807574987411499
O89 O 0.5 0.6119000315666199 0.05757499858736992
O90 O 0.5 0.6119000315666199 0.307574987411499
O91 O 0.5 0.6119000315666199 0.557574987411499
O92 O 0.5 0.6119000315666199 0.807574987411499
O93 O 0.5 0.9452333450317383 0.05757499858736992
O94 O 0.5 0.9452333450317383 0.307574987411499
O95 O 0.5 0.9452333450317383 0.557574987411499
O96 O 0.5 0.9452333450317383 0.807574987411499
O97 O 0.0 0.2785666584968567 0.19242499768733978
O98 O 0.0 0.2785666584968567 0.442425012588501
O99 O 0.0 0.2785666584968567 0.692425012588501
O100 O 0.0 0.2785666584968567 0.942425012588501
O101 O 0.0 0.6119000315666199 0.19242499768733978
O102 O 0.0 0.6119000315666199 0.442425012588501
O103 O 0.0 0.6119000315666199 0.692425012588501
O104 O 0.0 0.6119000315666199 0.942425012588501
O105 O 0.0 0.9452333450317383 0.19242499768733978
O106 O 0.0 0.9452333450317383 0.442425012588501
O107 O 0.0 0.9452333450317383 0.692425012588501
O108 O 0.0 0.9452333450317383 0.942425012588501
O109 O 0.5 0.2785666584968567 0.19242499768733978
O110 O 0.5 0.2785666584968567 0.442425012588501
O111 O 0.5 0.2785666584968567 0.692425012588501
O112 O 0.5 0.2785666584968567 0.942425012588501
O113 O 0.5 0.6119000315666199 0.19242499768733978
O114 O 0.5 0.6119000315666199 0.442425012588501
O115 O 0.5 0.6119000315666199 0.692425012588501
O116 O 0.5 0.6119000315666199 0.942425012588501
O117 O 0.5 0.9452333450317383 0.19242499768733978
O118 O 0.5 0.9452333450317383 0.442425012588501
O119 O 0.5 0.9452333450317383 0.692425012588501
O120 O 0.5 0.9452333450317383 0.942425012588501
O121 O 0.07339999824762344 0.09996666759252548 0.0
O122 O 0.07339999824762344 0.09996666759252548 0.25
O123 O 0.07339999824762344 0.09996666759252548 0.5
O124 O 0.07339999824762344 0.09996666759252548 0.75
O125 O 0.07339999824762344 0.4333000183105469 0.0
O126 O 0.07339999824762344 0.4333000183105469 0.25
O127 O 0.07339999824762344 0.4333000183105469 0.5
O128 O 0.07339999824762344 0.4333000183105469 0.75
O129 O 0.07339999824762344 0.7666333317756653 0.0
O130 O 0.07339999824762344 0.7666333317756653 0.25
O131 O 0.07339999824762344 0.7666333317756653 0.5
O132 O 0.07339999824762344 0.7666333317756653 0.75
O133 O 0.5734000205993652 0.09996666759252548 0.0
O134 O 0.5734000205993652 0.09996666759252548 0.25
O135 O 0.5734000205993652 0.09996666759252548 0.5
O136 O 0.5734000205993652 0.09996666759252548 0.75
O137 O 0.5734000205993652 0.4333000183105469 0.0
O138 O 0.5734000205993652 0.4333000183105469 0.25
O139 O 0.5734000205993652 0.4333000183105469 0.5
O140 O 0.5734000205993652 0.4333000183105469 0.75
O141 O 0.5734000205993652 0.7666333317756653 0.0
O142 O 0.5734000205993652 0.7666333317756653 0.25
O143 O 0.5734000205993652 0.7666333317756653 0.5
O144 O 0.5734000205993652 0.7666333317756653 0.75
O145 O 0.07654999941587448 0.28440001606941223 0.0
O146 O 0.07654999941587448 0.28440001606941223 0.25
O147 O 0.07654999941587448 0.28440001606941223 0.5
O148 O 0.07654999941587448 0.28440001606941223 0.75
O149 O 0.07654999941587448 0.6177332997322083 0.0
O150 O 0.07654999941587448 0.6177332997322083 0.25
O151 O 0.07654999941587448 0.6177332997322083 0.5
O152 O 0.07654999941587448 0.6177332997322083 0.75
O153 O 0.07654999941587448 0.9510666728019714 0.0
O154 O 0.07654999941587448 0.9510666728019714 0.25
O155 O 0.07654999941587448 0.9510666728019714 0.5
O156 O 0.07654999941587448 0.9510666728019714 0.75
O157 O 0.5765500068664551 0.28440001606941223 0.0
O158 O 0.5765500068664551 0.28440001606941223 0.25
O159 O 0.5765500068664551 0.28440001606941223 0.5
O160 O 0.5765500068664551 0.28440001606941223 0.75
O161 O 0.5765500068664551 0.6177332997322083 0.0
O162 O 0.5765500068664551 0.6177332997322083 0.25
O163 O 0.5765500068664551 0.6177332997322083 0.5
O164 O 0.5765500068664551 0.6177332997322083 0.75
O165 O 0.5765500068664551 0.9510666728019714 0.0
O166 O 0.5765500068664551 0.9510666728019714 0.25
O167 O 0.5765500068664551 0.9510666728019714 0.5
O168 O 0.5765500068664551 0.9510666728019714 0.75
O169 O 0.07904999703168869 0.2629333436489105 0.08150000125169754
O170 O 0.07904999703168869 0.2629333436489105 0.33149999380111694
O171 O 0.07904999703168869 0.2629333436489105 0.5814999938011169
O172 O 0.07904999703168869 0.2629333436489105 0.8314999938011169
O173 O 0.07904999703168869 0.5962666869163513 0.08150000125169754
O174 O 0.07904999703168869 0.5962666869163513 0.33149999380111694
O175 O 0.07904999703168869 0.5962666869163513 0.5814999938011169
O176 O 0.07904999703168869 0.5962666869163513 0.8314999938011169
O177 O 0.07904999703168869 0.9296000003814697 0.08150000125169754
O178 O 0.07904999703168869 0.9296000003814697 0.33149999380111694
O179 O 0.07904999703168869 0.9296000003814697 0.5814999938011169
O180 O 0.07904999703168869 0.9296000003814697 0.8314999938011169
O181 O 0.5790500044822693 0.2629333436489105 0.08150000125169754
O182 O 0.5790500044822693 0.2629333436489105 0.33149999380111694
O183 O 0.5790500044822693 0.2629333436489105 0.5814999938011169
O184 O 0.5790500044822693 0.2629333436489105 0.8314999938011169
O185 O 0.5790500044822693 0.5962666869163513 0.08150000125169754
O186 O 0.5790500044822693 0.5962666869163513 0.33149999380111694
O187 O 0.5790500044822693 0.5962666869163513 0.5814999938011169
O188 O 0.5790500044822693 0.5962666869163513 0.8314999938011169
O189 O 0.5790500044822693 0.9296000003814697 0.08150000125169754
O190 O 0.5790500044822693 0.9296000003814697 0.33149999380111694
O191 O 0.5790500044822693 0.9296000003814697 0.5814999938011169
O192 O 0.5790500044822693 0.9296000003814697 0.8314999938011169
O193 O 0.07904999703168869 0.2629333436489105 0.16850000619888306
O194 O 0.07904999703168869 0.2629333436489105 0.41850000619888306
O195 O 0.07904999703168869 0.2629333436489105 0.6685000061988831
O196 O 0.07904999703168869 0.2629333436489105 0.9185000061988831
O197 O 0.07904999703168869 0.5962666869163513 0.16850000619888306
O198 O 0.07904999703168869 0.5962666869163513 0.41850000619888306
O199 O 0.07904999703168869 0.5962666869163513 0.6685000061988831
O200 O 0.07904999703168869 0.5962666869163513 0.9185000061988831
O201 O 0.07904999703168869 0.9296000003814697 0.16850000619888306
O202 O 0.07904999703168869 0.9296000003814697 0.41850000619888306
O203 O 0.07904999703168869 0.9296000003814697 0.6685000061988831
O204 O 0.07904999703168869 0.9296000003814697 0.9185000061988831
O205 O 0.5790500044822693 0.2629333436489105 0.16850000619888306
O206 O 0.5790500044822693 0.2629333436489105 0.41850000619888306
O207 O 0.5790500044822693 0.2629333436489105 0.6685000061988831
O208 O 0.5790500044822693 0.2629333436489105 0.9185000061988831
O209 O 0.5790500044822693 0.5962666869163513 0.16850000619888306
O210 O 0.5790500044822693 0.5962666869163513 0.41850000619888306
O211 O 0.5790500044822693 0.5962666869163513 0.6685000061988831
O212 O 0.5790500044822693 0.5962666869163513 0.9185000061988831
O213 O 0.5790500044822693 0.9296000003814697 0.16850000619888306
O214 O 0.5790500044822693 0.9296000003814697 0.41850000619888306
O215 O 0.5790500044822693 0.9296000003814697 0.6685000061988831
O216 O 0.5790500044822693 0.9296000003814697 0.9185000061988831
O217 O 0.08214999735355377 0.054766666144132614 0.05757499858736992
O218 O 0.08214999735355377 0.054766666144132614 0.307574987411499
O219 O 0.08214999735355377 0.054766666144132614 0.557574987411499
O220 O 0.08214999735355377 0.054766666144132614 0.807574987411499
O221 O 0.08214999735355377 0.3880999982357025 0.05757499858736992
O222 O 0.08214999735355377 0.3880999982357025 0.307574987411499
O223 O 0.08214999735355377 0.3880999982357025 0.557574987411499
O224 O 0.08214999735355377 0.3880999982357025 0.807574987411499
O225 O 0.08214999735355377 0.7214333415031433 0.05757499858736992
O226 O 0.08214999735355377 0.7214333415031433 0.307574987411499
O227 O 0.08214999735355377 0.7214333415031433 0.557574987411499
O228 O 0.08214999735355377 0.7214333415031433 0.807574987411499
O229 O 0.5821499824523926 0.054766666144132614 0.05757499858736992
O230 O 0.5821499824523926 0.054766666144132614 0.307574987411499
O231 O 0.5821499824523926 0.054766666144132614 0.557574987411499
O232 O 0.5821499824523926 0.054766666144132614 0.807574987411499
O233 O 0.5821499824523926 0.3880999982357025 0.05757499858736992
O234 O 0.5821499824523926 0.3880999982357025 0.307574987411499
O235 O 0.5821499824523926 0.3880999982357025 0.557574987411499
O236 O 0.5821499824523926 0.3880999982357025 0.807574987411499
O237 O 0.5821499824523926 0.7214333415031433 0.05757499858736992
O238 O 0.5821499824523926 0.7214333415031433 0.307574987411499
O239 O 0.5821499824523926 0.7214333415031433 0.557574987411499
O240 O 0.5821499824523926 0.7214333415031433 0.807574987411499
O241 O 0.08214999735355377 0.054766666144132614 0.19242499768733978
O242 O 0.08214999735355377 0.054766666144132614 0.442425012588501
O243 O 0.08214999735355377 0.054766666144132614 0.692425012588501
O244 O 0.08214999735355377 0.054766666144132614 0.942425012588501
O245 O 0.08214999735355377 0.3880999982357025 0.19242499768733978
O246 O 0.08214999735355377 0.3880999982357025 0.442425012588501
O247 O 0.08214999735355377 0.3880999982357025 0.692425012588501
O248 O 0.08214999735355377 0.3880999982357025 0.942425012588501
O249 O 0.08214999735355377 0.7214333415031433 0.19242499768733978
O250 O 0.08214999735355377 0.7214333415031433 0.442425012588501
O251 O 0.08214999735355377 0.7214333415031433 0.692425012588501
O252 O 0.08214999735355377 0.7214333415031433 0.942425012588501
O253 O 0.5821499824523926 0.054766666144132614 0.19242499768733978
O254 O 0.5821499824523926 0.054766666144132614 0.442425012588501
O255 O 0.5821499824523926 0.054766666144132614 0.692425012588501
O256 O 0.5821499824523926 0.054766666144132614 0.942425012588501
O257 O 0.5821499824523926 0.3880999982357025 0.19242499768733978
O258 O 0.5821499824523926 0.3880999982357025 0.442425012588501
O259 O 0.5821499824523926 0.3880999982357025 0.692425012588501
O260 O 0.5821499824523926 0.3880999982357025 0.942425012588501
O261 O 0.5821499824523926 0.7214333415031433 0.19242499768733978
O262 O 0.5821499824523926 0.7214333415031433 0.442425012588501
O263 O 0.5821499824523926 0.7214333415031433 0.692425012588501
O264 O 0.5821499824523926 0.7214333415031433 0.942425012588501
O265 O 0.10520000010728836 0.21789999306201935 0.125
O266 O 0.10520000010728836 0.21789999306201935 0.375
O267 O 0.10520000010728836 0.21789999306201935 0.625
O268 O 0.10520000010728836 0.21789999306201935 0.875
O269 O 0.10520000010728836 0.5512333512306213 0.125
O270 O 0.10520000010728836 0.5512333512306213 0.375
O271 O 0.10520000010728836 0.5512333512306213 0.625
O272 O 0.10520000010728836 0.5512333512306213 0.875
O273 O 0.10520000010728836 0.8845667243003845 0.125
O274 O 0.10520000010728836 0.8845667243003845 0.375
O275 O 0.10520000010728836 0.8845667243003845 0.625
O276 O 0.10520000010728836 0.8845667243003845 0.875
O277 O 0.6051999926567078 0.21789999306201935 0.125
O278 O 0.6051999926567078 0.21789999306201935 0.375
O279 O 0.6051999926567078 0.21789999306201935 0.625
O280 O 0.6051999926567078 0.21789999306201935 0.875
O281 O 0.6051999926567078 0.5512333512306213 0.125
O282 O 0.6051999926567078 0.5512333512306213 0.375
O283 O 0.6051999926567078 0.5512333512306213 0.625
O284 O 0.6051999926567078 0.5512333512306213 0.875
O285 O 0.6051999926567078 0.8845667243003845 0.125
O286 O 0.6051999926567078 0.8845667243003845 0.375
O287 O 0.6051999926567078 0.8845667243003845 0.625
O288 O 0.6051999926567078 0.8845667243003845 0.875
O289 O 0.10559999942779541 0.12310000509023666 0.08150000125169754
O290 O 0.10559999942779541 0.12310000509023666 0.33149999380111694
O291 O 0.10559999942779541 0.12310000509023666 0.5814999938011169
O292 O 0.10559999942779541 0.12310000509023666 0.8314999938011169
O293 O 0.10559999942779541 0.45643332600593567 0.08150000125169754
O294 O 0.10559999942779541 0.45643332600593567 0.33149999380111694
O295 O 0.10559999942779541 0.45643332600593567 0.5814999938011169
O296 O 0.10559999942779541 0.45643332600593567 0.8314999938011169
O297 O 0.10559999942779541 0.7897666096687317 0.08150000125169754
O298 O 0.10559999942779541 0.7897666096687317 0.33149999380111694
O299 O 0.10559999942779541 0.7897666096687317 0.5814999938011169
O300 O 0.10559999942779541 0.7897666096687317 0.8314999938011169
O301 O 0.6055999994277954 0.12310000509023666 0.08150000125169754
O302 O 0.6055999994277954 0.12310000509023666 0.33149999380111694
O303 O 0.6055999994277954 0.12310000509023666 0.5814999938011169
O304 O 0.6055999994277954 0.12310000509023666 0.8314999938011169
O305 O 0.6055999994277954 0.45643332600593567 0.08150000125169754
O306 O 0.6055999994277954 0.45643332600593567 0.33149999380111694
O307 O 0.6055999994277954 0.45643332600593567 0.5814999938011169
O308 O 0.6055999994277954 0.45643332600593567 0.8314999938011169
O309 O 0.6055999994277954 0.7897666096687317 0.08150000125169754
O310 O 0.6055999994277954 0.7897666096687317 0.33149999380111694
O311 O 0.6055999994277954 0.7897666096687317 0.5814999938011169
O312 O 0.6055999994277954 0.7897666096687317 0.8314999938011169
O313 O 0.10559999942779541 0.12310000509023666 0.16850000619888306
O314 O 0.10559999942779541 0.12310000509023666 0.41850000619888306
O315 O 0.10559999942779541 0.12310000509023666 0.6685000061988831
O316 O 0.10559999942779541 0.12310000509023666 0.9185000061988831
O317 O 0.10559999942779541 0.45643332600593567 0.16850000619888306
O318 O 0.10559999942779541 0.45643332600593567 0.41850000619888306
O319 O 0.10559999942779541 0.45643332600593567 0.6685000061988831
O320 O 0.10559999942779541 0.45643332600593567 0.9185000061988831
O321 O 0.10559999942779541 0.7897666096687317 0.16850000619888306
O322 O 0.10559999942779541 0.7897666096687317 0.41850000619888306
O323 O 0.10559999942779541 0.7897666096687317 0.6685000061988831
O324 O 0.10559999942779541 0.7897666096687317 0.9185000061988831
O325 O 0.6055999994277954 0.12310000509023666 0.16850000619888306
O326 O 0.6055999994277954 0.12310000509023666 0.41850000619888306
O327 O 0.6055999994277954 0.12310000509023666 0.6685000061988831
O328 O 0.6055999994277954 0.12310000509023666 0.9185000061988831
O329 O 0.6055999994277954 0.45643332600593567 0.16850000619888306
O330 O 0.6055999994277954 0.45643332600593567 0.41850000619888306
O331 O 0.6055999994277954 0.45643332600593567 0.6685000061988831
O332 O 0.6055999994277954 0.45643332600593567 0.9185000061988831
O333 O 0.6055999994277954 0.7897666096687317 0.16850000619888306
O334 O 0.6055999994277954 0.7897666096687317 0.41850000619888306
O335 O 0.6055999994277954 0.7897666096687317 0.6685000061988831
O336 O 0.6055999994277954 0.7897666096687317 0.9185000061988831
O337 O 0.10610000044107437 0.0 0.06525000184774399
O338 O 0.10610000044107437 0.0 0.3152500092983246
O339 O 0.10610000044107437 0.0 0.5652499794960022
O340 O 0.10610000044107437 0.0 0.8152499794960022
O341 O 0.10610000044107437 0.3333333432674408 0.06525000184774399
O342 O 0.10610000044107437 0.3333333432674408 0.3152500092983246
O343 O 0.10610000044107437 0.3333333432674408 0.5652499794960022
O344 O 0.10610000044107437 0.3333333432674408 0.8152499794960022
O345 O 0.10610000044107437 0.6666666865348816 0.06525000184774399
O346 O 0.10610000044107437 0.6666666865348816 0.3152500092983246
O347 O 0.10610000044107437 0.6666666865348816 0.5652499794960022
O348 O 0.10610000044107437 0.6666666865348816 0.8152499794960022
O349 O 0.6061000227928162 0.0 0.06525000184774399
O350 O 0.6061000227928162 0.0 0.3152500092983246
O351 O 0.6061000227928162 0.0 0.5652499794960022
O352 O 0.6061000227928162 0.0 0.8152499794960022
O353 O 0.6061000227928162 0.3333333432674408 0.06525000184774399
O354 O 0.6061000227928162 0.3333333432674408 0.3152500092983246
O355 O 0.6061000227928162 0.3333333432674408 0.5652499794960022
O356 O 0.6061000227928162 0.3333333432674408 0.8152499794960022
O357 O 0.6061000227928162 0.6666666865348816 0.06525000184774399
O358 O 0.6061000227928162 0.6666666865348816 0.3152500092983246
O359 O 0.6061000227928162 0.6666666865348816 0.5652499794960022
O360 O 0.6061000227928162 0.6666666865348816 0.8152499794960022
O361 O 0.10610000044107437 0.0 0.1847500056028366
O362 O 0.10610000044107437 0.0 0.4347499907016754
O363 O 0.10610000044107437 0.0 0.6847500205039978
O364 O 0.10610000044107437 0.0 0.9347500205039978
O365 O 0.10610000044107437 0.3333333432674408 0.1847500056028366
O366 O 0.10610000044107437 0.3333333432674408 0.4347499907016754
O367 O 0.10610000044107437 0.3333333432674408 0.6847500205039978
O368 O 0.10610000044107437 0.3333333432674408 0.9347500205039978
O369 O 0.10610000044107437 0.6666666865348816 0.1847500056028366
O370 O 0.10610000044107437 0.6666666865348816 0.4347499907016754
O371 O 0.10610000044107437 0.6666666865348816 0.6847500205039978
O372 O 0.10610000044107437 0.6666666865348816 0.9347500205039978
O373 O 0.6061000227928162 0.0 0.1847500056028366
O374 O 0.6061000227928162 0.0 0.4347499907016754
O375 O 0.6061000227928162 0.0 0.6847500205039978
O376 O 0.6061000227928162 0.0 0.9347500205039978
O377 O 0.6061000227928162 0.3333333432674408 0.1847500056028366
O378 O 0.6061000227928162 0.3333333432674408 0.4347499907016754
O379 O 0.6061000227928162 0.3333333432674408 0.6847500205039978
O380 O 0.6061000227928162 0.3333333432674408 0.9347500205039978
O381 O 0.6061000227928162 0.6666666865348816 0.1847500056028366
O382 O 0.6061000227928162 0.6666666865348816 0.4347499907016754
O383 O 0.6061000227928162 0.6666666865348816 0.6847500205039978
O384 O 0.6061000227928162 0.6666666865348816 0.9347500205039978
O385 O 0.14994999766349792 0.04893333092331886 0.0
O386 O 0.14994999766349792 0.04893333092331886 0.25
O387 O 0.14994999766349792 0.04893333092331886 0.5
O388 O 0.14994999766349792 0.04893333092331886 0.75
O389 O 0.14994999766349792 0.38226667046546936 0.0
O390 O 0.14994999766349792 0.38226667046546936 0.25
O391 O 0.14994999766349792 0.38226667046546936 0.5
O392 O 0.14994999766349792 0.38226667046546936 0.75
O393 O 0.14994999766349792 0.7156000137329102 0.0
O394 O 0.14994999766349792 0.7156000137329102 0.25
O395 O 0.14994999766349792 0.7156000137329102 0.5
O396 O 0.14994999766349792 0.7156000137329102 0.75
O397 O 0.6499500274658203 0.04893333092331886 0.0
O398 O 0.6499500274658203 0.04893333092331886 0.25
O399 O 0.6499500274658203 0.04893333092331886 0.5
O400 O 0.6499500274658203 0.04893333092331886 0.75
O401 O 0.6499500274658203 0.38226667046546936 0.0
O402 O 0.6499500274658203 0.38226667046546936 0.25
O403 O 0.6499500274658203 0.38226667046546936 0.5
O404 O 0.6499500274658203 0.38226667046546936 0.75
O405 O 0.6499500274658203 0.7156000137329102 0.0
O406 O 0.6499500274658203 0.7156000137329102 0.25
O407 O 0.6499500274658203 0.7156000137329102 0.5
O408 O 0.6499500274658203 0.7156000137329102 0.75
O409 O 0.17315000295639038 0.18556666374206543 0.125
O410 O 0.17315000295639038 0.18556666374206543 0.375
O411 O 0.17315000295639038 0.18556666374206543 0.625
O412 O 0.17315000295639038 0.18556666374206543 0.875
O413 O 0.17315000295639038 0.5188999772071838 0.125
O414 O 0.17315000295639038 0.5188999772071838 0.375
O415 O 0.17315000295639038 0.5188999772071838 0.625
O416 O 0.17315000295639038 0.5188999772071838 0.875
O417 O 0.17315000295639038 0.852233350276947 0.125
O418 O 0.17315000295639038 0.852233350276947 0.375
O419 O 0.17315000295639038 0.852233350276947 0.625
O420 O 0.17315000295639038 0.852233350276947 0.875
O421 O 0.6731500029563904 0.18556666374206543 0.125
O422 O 0.6731500029563904 0.18556666374206543 0.375
O423 O 0.6731500029563904 0.18556666374206543 0.625
O424 O 0.6731500029563904 0.18556666374206543 0.875
O425 O 0.6731500029563904 0.5188999772071838 0.125
O426 O 0.6731500029563904 0.5188999772071838 0.375
O427 O 0.6731500029563904 0.5188999772071838 0.625
O428 O 0.6731500029563904 0.5188999772071838 0.875
O429 O 0.6731500029563904 0.852233350276947 0.125
O430 O 0.6731500029563904 0.852233350276947 0.375
O431 O 0.6731500029563904 0.852233350276947 0.625
O432 O 0.6731500029563904 0.852233350276947 0.875
O433 O 0.1846500039100647 0.07039999961853027 0.08150000125169754
O434 O 0.1846500039100647 0.07039999961853027 0.33149999380111694
O435 O 0.1846500039100647 0.07039999961853027 0.5814999938011169
O436 O 0.1846500039100647 0.07039999961853027 0.8314999938011169
O437 O 0.1846500039100647 0.40373334288597107 0.08150000125169754
O438 O 0.1846500039100647 0.40373334288597107 0.33149999380111694
O439 O 0.1846500039100647 0.40373334288597107 0.5814999938011169
O440 O 0.1846500039100647 0.40373334288597107 0.8314999938011169
O441 O 0.1846500039100647 0.7370666861534119 0.08150000125169754
O442 O 0.1846500039100647 0.7370666861534119 0.33149999380111694
O443 O 0.1846500039100647 0.7370666861534119 0.5814999938011169
O444 O 0.1846500039100647 0.7370666861534119 0.8314999938011169
O445 O 0.6846500039100647 0.07039999961853027 0.08150000125169754
O446 O 0.6846500039100647 0.07039999961853027 0.33149999380111694
O447 O 0.6846500039100647 0.07039999961853027 0.5814999938011169
O448 O 0.6846500039100647 0.07039999961853027 0.8314999938011169
O449 O 0.6846500039100647 0.40373334288597107 0.08150000125169754
O450 O 0.6846500039100647 0.40373334288597107 0.33149999380111694
O451 O 0.6846500039100647 0.40373334288597107 0.5814999938011169
O452 O 0.6846500039100647 0.40373334288597107 0.8314999938011169
O453 O 0.6846500039100647 0.7370666861534119 0.08150000125169754
O454 O 0.6846500039100647 0.7370666861534119 0.33149999380111694
O455 O 0.6846500039100647 0.7370666861534119 0.5814999938011169
O456 O 0.6846500039100647 0.7370666861534119 0.8314999938011169
O457 O 0.1846500039100647 0.07039999961853027 0.16850000619888306
O458 O 0.1846500039100647 0.07039999961853027 0.41850000619888306
O459 O 0.1846500039100647 0.07039999961853027 0.6685000061988831
O460 O 0.1846500039100647 0.07039999961853027 0.9185000061988831
O461 O 0.1846500039100647 0.40373334288597107 0.16850000619888306
O462 O 0.1846500039100647 0.40373334288597107 0.41850000619888306
O463 O 0.1846500039100647 0.40373334288597107 0.6685000061988831
O464 O 0.1846500039100647 0.40373334288597107 0.9185000061988831
O465 O 0.1846500039100647 0.7370666861534119 0.16850000619888306
O466 O 0.1846500039100647 0.7370666861534119 0.41850000619888306
O467 O 0.1846500039100647 0.7370666861534119 0.6685000061988831
O468 O 0.1846500039100647 0.7370666861534119 0.9185000061988831
O469 O 0.6846500039100647 0.07039999961853027 0.16850000619888306
O470 O 0.6846500039100647 0.07039999961853027 0.41850000619888306
O471 O 0.6846500039100647 0.07039999961853027 0.6685000061988831
O472 O 0.6846500039100647 0.07039999961853027 0.9185000061988831
O473 O 0.6846500039100647 0.40373334288597107 0.16850000619888306
O474 O 0.6846500039100647 0.40373334288597107 0.41850000619888306
O475 O 0.6846500039100647 0.40373334288597107 0.6685000061988831
O476 O 0.6846500039100647 0.40373334288597107 0.9185000061988831
O477 O 0.6846500039100647 0.7370666861534119 0.16850000619888306
O478 O 0.6846500039100647 0.7370666861534119 0.41850000619888306
O479 O 0.6846500039100647 0.7370666861534119 0.6685000061988831
O480 O 0.6846500039100647 0.7370666861534119 0.9185000061988831
O481 O 0.1935500055551529 0.12903334200382233 0.125
O482 O 0.1935500055551529 0.12903334200382233 0.375
O483 O 0.1935500055551529 0.12903334200382233 0.625
O484 O 0.1935500055551529 0.12903334200382233 0.875
O485 O 0.1935500055551529 0.46236667037010193 0.125
O486 O 0.1935500055551529 0.46236667037010193 0.375
O487 O 0.1935500055551529 0.46236667037010193 0.625
O488 O 0.1935500055551529 0.46236667037010193 0.875
O489 O 0.1935500055551529 0.7957000136375427 0.125
O490 O 0.1935500055551529 0.7957000136375427 0.375
O491 O 0.1935500055551529 0.7957000136375427 0.625
O492 O 0.1935500055551529 0.7957000136375427 0.875
O493 O 0.6935499906539917 0.12903334200382233 0.125
O494 O 0.6935499906539917 0.12903334200382233 0.375
O495 O 0.6935499906539917 0.12903334200382233 0.625
O496 O 0.6935499906539917 0.12903334200382233 0.875
O497 O 0.6935499906539917 0.46236667037010193 0.125
O498 O 0.6935499906539917 0.46236667037010193 0.375
O499 O 0.6935499906539917 0.46236667037010193 0.625
O500 O 0.6935499906539917 0.46236667037010193 0.875
O501 O 0.6935499906539917 0.7957000136375427 0.125
O502 O 0.6935499906539917 0.7957000136375427 0.375
O503 O 0.6935499906539917 0.7957000136375427 0.625
O504 O 0.6935499906539917 0.7957000136375427 0.875
O505 O 0.22165000438690186 0.2632000148296356 0.125
O506 O 0.22165000438690186 0.2632000148296356 0.375
O507 O 0.22165000438690186 0.2632000148296356 0.625
O508 O 0.22165000438690186 0.2632000148296356 0.875
O509 O 0.22165000438690186 0.5965333580970764 0.125
O510 O 0.22165000438690186 0.5965333580970764 0.375
O511 O 0.22165000438690186 0.5965333580970764 0.625
O512 O 0.22165000438690186 0.5965333580970764 0.875
O513 O 0.22165000438690186 0.92986661195755 0.125
O514 O 0.22165000438690186 0.92986661195755 0.375
O515 O 0.22165000438690186 0.92986661195755 0.625
O516 O 0.22165000438690186 0.92986661195755 0.875
O517 O 0.7216500043869019 0.2632000148296356 0.125
O518 O 0.7216500043869019 0.2632000148296356 0.375
O519 O 0.7216500043869019 0.2632000148296356 0.625
O520 O 0.7216500043869019 0.2632000148296356 0.875
O521 O 0.7216500043869019 0.5965333580970764 0.125
O522 O 0.7216500043869019 0.5965333580970764 0.375
O523 O 0.7216500043869019 0.5965333580970764 0.625
O524 O 0.7216500043869019 0.5965333580970764 0.875
O525 O 0.7216500043869019 0.92986661195755 0.125
O526 O 0.7216500043869019 0.92986661195755 0.375
O527 O 0.7216500043869019 0.92986661195755 0.625
O528 O 0.7216500043869019 0.92986661195755 0.875
O529 O 0.27834999561309814 0.11543333530426025 0.125
O530 O 0.27834999561309814 0.11543333530426025 0.375
O531 O 0.27834999561309814 0.11543333530426025 0.625
O532 O 0.27834999561309814 0.11543333530426025 0.875
O533 O 0.27834999561309814 0.44876667857170105 0.125
O534 O 0.27834999561309814 0.44876667857170105 0.375
O535 O 0.27834999561309814 0.44876667857170105 0.625
O536 O 0.27834999561309814 0.44876667857170105 0.875
O537 O 0.27834999561309814 0.7820999622344971 0.125
O538 O 0.27834999561309814 0.7820999622344971 0.375
O539 O 0.27834999561309814 0.7820999622344971 0.625
O540 O 0.27834999561309814 0.7820999622344971 0.875
O541 O 0.7783499956130981 0.11543333530426025 0.125
O542 O 0.7783499956130981 0.11543333530426025 0.375
O543 O 0.7783499956130981 0.11543333530426025 0.625
O544 O 0.7783499956130981 0.11543333530426025 0.875
O545 O 0.7783499956130981 0.44876667857170105 0.125
O546 O 0.7783499956130981 0.44876667857170105 0.375
O547 O 0.7783499956130981 0.44876667857170105 0.625
O548 O 0.7783499956130981 0.44876667857170105 0.875
O549 O 0.7783499956130981 0.7820999622344971 0.125
O550 O 0.7783499956130981 0.7820999622344971 0.375
O551 O 0.7783499956130981 0.7820999622344971 0.625
O552 O 0.7783499956130981 0.7820999622344971 0.875
O553 O 0.3064500093460083 0.0 0.125
O554 O 0.3064500093460083 0.0 0.375
O555 O 0.3064500093460083 0.0 0.625
O556 O 0.3064500093460083 0.0 0.875
O557 O 0.3064500093460083 0.3333333432674408 0.125
O558 O 0.3064500093460083 0.3333333432674408 0.375
O559 O 0.3064500093460083 0.3333333432674408 0.625
O560 O 0.3064500093460083 0.3333333432674408 0.875
O561 O 0.3064500093460083 0.6666666865348816 0.125
O562 O 0.3064500093460083 0.6666666865348816 0.375
O563 O 0.3064500093460083 0.6666666865348816 0.625
O564 O 0.3064500093460083 0.6666666865348816 0.875
O565 O 0.8064500093460083 0.0 0.125
O566 O 0.8064500093460083 0.0 0.375
O567 O 0.8064500093460083 0.0 0.625
O568 O 0.8064500093460083 0.0 0.875
O569 O 0.8064500093460083 0.3333333432674408 0.125
O570 O 0.8064500093460083 0.3333333432674408 0.375
O571 O 0.8064500093460083 0.3333333432674408 0.625
O572 O 0.8064500093460083 0.3333333432674408 0.875
O573 O 0.8064500093460083 0.6666666865348816 0.125
O574 O 0.8064500093460083 0.6666666865348816 0.375
O575 O 0.8064500093460083 0.6666666865348816 0.625
O576 O 0.8064500093460083 0.6666666865348816 0.875
O577 O 0.3153499960899353 0.2806333303451538 0.08150000125169754
O578 O 0.3153499960899353 0.2806333303451538 0.33149999380111694
O579 O 0.3153499960899353 0.2806333303451538 0.5814999938011169
O580 O 0.3153499960899353 0.2806333303451538 0.8314999938011169
O581 O 0.3153499960899353 0.6139666438102722 0.08150000125169754
O582 O 0.3153499960899353 0.6139666438102722 0.33149999380111694
O583 O 0.3153499960899353 0.6139666438102722 0.5814999938011169
O584 O 0.3153499960899353 0.6139666438102722 0.8314999938011169
O585 O 0.3153499960899353 0.9473000168800354 0.08150000125169754
O586 O 0.3153499960899353 0.9473000168800354 0.33149999380111694
O587 O 0.3153499960899353 0.9473000168800354 0.5814999938011169
O588 O 0.3153499960899353 0.9473000168800354 0.8314999938011169
O589 O 0.8153499960899353 0.2806333303451538 0.08150000125169754
O590 O 0.8153499960899353 0.2806333303451538 0.33149999380111694
O591 O 0.8153499960899353 0.2806333303451538 0.5814999938011169
O592 O 0.8153499960899353 0.2806333303451538 0.8314999938011169
O593 O 0.8153499960899353 0.6139666438102722 0.08150000125169754
O594 O 0.8153499960899353 0.6139666438102722 0.33149999380111694
O595 O 0.8153499960899353 0.6139666438102722 0.5814999938011169
O596 O 0.8153499960899353 0.6139666438102722 0.8314999938011169
O597 O 0.8153499960899353 0.9473000168800354 0.08150000125169754
O598 O 0.8153499960899353 0.9473000168800354 0.33149999380111694
O599 O 0.8153499960899353 0.9473000168800354 0.5814999938011169
O600 O 0.8153499960899353 0.9473000168800354 0.8314999938011169
O601 O 0.3153499960899353 0.2806333303451538 0.16850000619888306
O602 O 0.3153499960899353 0.2806333303451538 0.41850000619888306
O603 O 0.3153499960899353 0.2806333303451538 0.6685000061988831
O604 O 0.3153499960899353 0.2806333303451538 0.9185000061988831
O605 O 0.3153499960899353 0.6139666438102722 0.16850000619888306
O606 O 0.3153499960899353 0.6139666438102722 0.41850000619888306
O607 O 0.3153499960899353 0.6139666438102722 0.6685000061988831
O608 O 0.3153499960899353 0.6139666438102722 0.9185000061988831
O609 O 0.3153499960899353 0.9473000168800354 0.16850000619888306
O610 O 0.3153499960899353 0.9473000168800354 0.41850000619888306
O611 O 0.3153499960899353 0.9473000168800354 0.6685000061988831
O612 O 0.3153499960899353 0.9473000168800354 0.9185000061988831
O613 O 0.8153499960899353 0.2806333303451538 0.16850000619888306
O614 O 0.8153499960899353 0.2806333303451538 0.41850000619888306
O615 O 0.8153499960899353 0.2806333303451538 0.6685000061988831
O616 O 0.8153499960899353 0.2806333303451538 0.9185000061988831
O617 O 0.8153499960899353 0.6139666438102722 0.16850000619888306
O618 O 0.8153499960899353 0.6139666438102722 0.41850000619888306
O619 O 0.8153499960899353 0.6139666438102722 0.6685000061988831
O620 O 0.8153499960899353 0.6139666438102722 0.9185000061988831
O621 O 0.8153499960899353 0.9473000168800354 0.16850000619888306
O622 O 0.8153499960899353 0.9473000168800354 0.41850000619888306
O623 O 0.8153499960899353 0.9473000168800354 0.6685000061988831
O624 O 0.8153499960899353 0.9473000168800354 0.9185000061988831
O625 O 0.3268499970436096 0.07013333588838577 0.125
O626 O 0.3268499970436096 0.07013333588838577 0.375
O627 O 0.3268499970436096 0.07013333588838577 0.625
O628 O 0.3268499970436096 0.07013333588838577 0.875
O629 O 0.3268499970436096 0.40346667170524597 0.125
O630 O 0.3268499970436096 0.40346667170524597 0.375
O631 O 0.3268499970436096 0.40346667170524597 0.625
O632 O 0.3268499970436096 0.40346667170524597 0.875
O633 O 0.3268499970436096 0.7368000149726868 0.125
O634 O 0.3268499970436096 0.7368000149726868 0.375
O635 O 0.3268499970436096 0.7368000149726868 0.625
O636 O 0.3268499970436096 0.7368000149726868 0.875
O637 O 0.8268499970436096 0.07013333588838577 0.125
O638 O 0.8268499970436096 0.07013333588838577 0.375
O639 O 0.8268499970436096 0.07013333588838577 0.625
O640 O 0.8268499970436096 0.07013333588838577 0.875
O641 O 0.8268499970436096 0.40346667170524597 0.125
O642 O 0.8268499970436096 0.40346667170524597 0.375
O643 O 0.8268499970436096 0.40346667170524597 0.625
O644 O 0.8268499970436096 0.40346667170524597 0.875
O645 O 0.8268499970436096 0.7368000149726868 0.125
O646 O 0.8268499970436096 0.7368000149726868 0.375
O647 O 0.8268499970436096 0.7368000149726868 0.625
O648 O 0.8268499970436096 0.7368000149726868 0.875
O649 O 0.3500500023365021 0.2822999954223633 0.0
O650 O 0.3500500023365021 0.2822999954223633 0.25
O651 O 0.3500500023365021 0.2822999954223633 0.5
O652 O 0.3500500023365021 0.2822999954223633 0.75
O653 O 0.3500500023365021 0.6156333088874817 0.0
O654 O 0.3500500023365021 0.6156333088874817 0.25
O655 O 0.3500500023365021 0.6156333088874817 0.5
O656 O 0.3500500023365021 0.6156333088874817 0.75
O657 O 0.3500500023365021 0.9489666819572449 0.0
O658 O 0.3500500023365021 0.9489666819572449 0.25
O659 O 0.3500500023365021 0.9489666819572449 0.5
O660 O 0.3500500023365021 0.9489666819572449 0.75
O661 O 0.8500499725341797 0.2822999954223633 0.0
O662 O 0.8500499725341797 0.2822999954223633 0.25
O663 O 0.8500499725341797 0.2822999954223633 0.5
O664 O 0.8500499725341797 0.2822999954223633 0.75
O665 O 0.8500499725341797 0.6156333088874817 0.0
O666 O 0.8500499725341797 0.6156333088874817 0.25
O667 O 0.8500499725341797 0.6156333088874817 0.5
O668 O 0.8500499725341797 0.6156333088874817 0.75
O669 O 0.8500499725341797 0.9489666819572449 0.0
O670 O 0.8500499725341797 0.9489666819572449 0.25
O671 O 0.8500499725341797 0.9489666819572449 0.5
O672 O 0.8500499725341797 0.9489666819572449 0.75
O673 O 0.3939000070095062 0.26260000467300415 0.06525000184774399
O674 O 0.3939000070095062 0.26260000467300415 0.3152500092983246
O675 O 0.3939000070095062 0.26260000467300415 0.5652499794960022
O676 O 0.3939000070095062 0.26260000467300415 0.8152499794960022
O677 O 0.3939000070095062 0.5959333181381226 0.06525000184774399
O678 O 0.3939000070095062 0.5959333181381226 0.3152500092983246
O679 O 0.3939000070095062 0.5959333181381226 0.5652499794960022
O680 O 0.3939000070095062 0.5959333181381226 0.8152499794960022
O681 O 0.3939000070095062 0.9292666912078857 0.06525000184774399
O682 O 0.3939000070095062 0.9292666912078857 0.3152500092983246
O683 O 0.3939000070095062 0.9292666912078857 0.5652499794960022
O684 O 0.3939000070095062 0.9292666912078857 0.8152499794960022
O685 O 0.8938999772071838 0.26260000467300415 0.06525000184774399
O686 O 0.8938999772071838 0.26260000467300415 0.3152500092983246
O687 O 0.8938999772071838 0.26260000467300415 0.5652499794960022
O688 O 0.8938999772071838 0.26260000467300415 0.8152499794960022
O689 O 0.8938999772071838 0.5959333181381226 0.06525000184774399
O690 O 0.8938999772071838 0.5959333181381226 0.3152500092983246
O691 O 0.8938999772071838 0.5959333181381226 0.5652499794960022
O692 O 0.8938999772071838 0.5959333181381226 0.8152499794960022
O693 O 0.8938999772071838 0.9292666912078857 0.06525000184774399
O694 O 0.8938999772071838 0.9292666912078857 0.3152500092983246
O695 O 0.8938999772071838 0.9292666912078857 0.5652499794960022
O696 O 0.8938999772071838 0.9292666912078857 0.8152499794960022
O697 O 0.3939000070095062 0.26260000467300415 0.1847500056028366
O698 O 0.3939000070095062 0.26260000467300415 0.4347499907016754
O699 O 0.3939000070095062 0.26260000467300415 0.6847500205039978
O700 O 0.3939000070095062 0.26260000467300415 0.9347500205039978
O701 O 0.3939000070095062 0.5959333181381226 0.1847500056028366
O702 O 0.3939000070095062 0.5959333181381226 0.4347499907016754
O703 O 0.3939000070095062 0.5959333181381226 0.6847500205039978
O704 O 0.3939000070095062 0.5959333181381226 0.9347500205039978
O705 O 0.3939000070095062 0.9292666912078857 0.1847500056028366
O706 O 0.3939000070095062 0.9292666912078857 0.4347499907016754
O707 O 0.3939000070095062 0.9292666912078857 0.6847500205039978
O708 O 0.3939000070095062 0.9292666912078857 0.9347500205039978
O709 O 0.8938999772071838 0.26260000467300415 0.1847500056028366
O710 O 0.8938999772071838 0.26260000467300415 0.4347499907016754
O711 O 0.8938999772071838 0.26260000467300415 0.6847500205039978
O712 O 0.8938999772071838 0.26260000467300415 0.9347500205039978
O713 O 0.8938999772071838 0.5959333181381226 0.1847500056028366
O714 O 0.8938999772071838 0.5959333181381226 0.4347499907016754
O715 O 0.8938999772071838 0.5959333181381226 0.6847500205039978
O716 O 0.8938999772071838 0.5959333181381226 0.9347500205039978
O717 O 0.8938999772071838 0.9292666912078857 0.1847500056028366
O718 O 0.8938999772071838 0.9292666912078857 0.4347499907016754
O719 O 0.8938999772071838 0.9292666912078857 0.6847500205039978
O720 O 0.8938999772071838 0.9292666912078857 0.9347500205039978
O721 O 0.3944000005722046 0.05269999802112579 0.08150000125169754
O722 O 0.3944000005722046 0.05269999802112579 0.33149999380111694
O723 O 0.3944000005722046 0.05269999802112579 0.5814999938011169
O724 O 0.3944000005722046 0.05269999802112579 0.8314999938011169
O725 O 0.3944000005722046 0.3860333263874054 0.08150000125169754
O726 O 0.3944000005722046 0.3860333263874054 0.33149999380111694
O727 O 0.3944000005722046 0.3860333263874054 0.5814999938011169
O728 O 0.3944000005722046 0.3860333263874054 0.8314999938011169
O729 O 0.3944000005722046 0.7193666100502014 0.08150000125169754
O730 O 0.3944000005722046 0.7193666100502014 0.33149999380111694
O731 O 0.3944000005722046 0.7193666100502014 0.5814999938011169
O732 O 0.3944000005722046 0.7193666100502014 0.8314999938011169
O733 O 0.8944000005722046 0.05269999802112579 0.08150000125169754
O734 O 0.8944000005722046 0.05269999802112579 0.33149999380111694
O735 O 0.8944000005722046 0.05269999802112579 0.5814999938011169
O736 O 0.8944000005722046 0.05269999802112579 0.8314999938011169
O737 O 0.8944000005722046 0.3860333263874054 0.08150000125169754
O738 O 0.8944000005722046 0.3860333263874054 0.33149999380111694
O739 O 0.8944000005722046 0.3860333263874054 0.5814999938011169
O740 O 0.8944000005722046 0.3860333263874054 0.8314999938011169
O741 O 0.8944000005722046 0.7193666100502014 0.08150000125169754
O742 O 0.8944000005722046 0.7193666100502014 0.33149999380111694
O743 O 0.8944000005722046 0.7193666100502014 0.5814999938011169
O744 O 0.8944000005722046 0.7193666100502014 0.8314999938011169
O745 O 0.3944000005722046 0.05269999802112579 0.16850000619888306
O746 O 0.3944000005722046 0.05269999802112579 0.41850000619888306
O747 O 0.3944000005722046 0.05269999802112579 0.6685000061988831
O748 O 0.3944000005722046 0.05269999802112579 0.9185000061988831
O749 O 0.3944000005722046 0.3860333263874054 0.16850000619888306
O750 O 0.3944000005722046 0.3860333263874054 0.41850000619888306
O751 O 0.3944000005722046 0.3860333263874054 0.6685000061988831
O752 O 0.3944000005722046 0.3860333263874054 0.9185000061988831
O753 O 0.3944000005722046 0.7193666100502014 0.16850000619888306
O754 O 0.3944000005722046 0.7193666100502014 0.41850000619888306
O755 O 0.3944000005722046 0.7193666100502014 0.6685000061988831
O756 O 0.3944000005722046 0.7193666100502014 0.9185000061988831
O757 O 0.8944000005722046 0.05269999802112579 0.16850000619888306
O758 O 0.8944000005722046 0.05269999802112579 0.41850000619888306
O759 O 0.8944000005722046 0.05269999802112579 0.6685000061988831
O760 O 0.8944000005722046 0.05269999802112579 0.9185000061988831
O761 O 0.8944000005722046 0.3860333263874054 0.16850000619888306
O762 O 0.8944000005722046 0.3860333263874054 0.41850000619888306
O763 O 0.8944000005722046 0.3860333263874054 0.6685000061988831
O764 O 0.8944000005722046 0.3860333263874054 0.9185000061988831
O765 O 0.8944000005722046 0.7193666100502014 0.16850000619888306
O766 O 0.8944000005722046 0.7193666100502014 0.41850000619888306
O767 O 0.8944000005722046 0.7193666100502014 0.6685000061988831
O768 O 0.8944000005722046 0.7193666100502014 0.9185000061988831
O769 O 0.39480000734329224 0.14776666462421417 0.125
O770 O 0.39480000734329224 0.14776666462421417 0.375
O771 O 0.39480000734329224 0.14776666462421417 0.625
O772 O 0.39480000734329224 0.14776666462421417 0.875
O773 O 0.39480000734329224 0.4810999929904938 0.125
O774 O 0.39480000734329224 0.4810999929904938 0.375
O775 O 0.39480000734329224 0.4810999929904938 0.625
O776 O 0.39480000734329224 0.4810999929904938 0.875
O777 O 0.39480000734329224 0.8144333362579346 0.125
O778 O 0.39480000734329224 0.8144333362579346 0.375
O779 O 0.39480000734329224 0.8144333362579346 0.625
O780 O 0.39480000734329224 0.8144333362579346 0.875
O781 O 0.8948000073432922 0.14776666462421417 0.125
O782 O 0.8948000073432922 0.14776666462421417 0.375
O783 O 0.8948000073432922 0.14776666462421417 0.625
O784 O 0.8948000073432922 0.14776666462421417 0.875
O785 O 0.8948000073432922 0.4810999929904938 0.125
O786 O 0.8948000073432922 0.4810999929904938 0.375
O787 O 0.8948000073432922 0.4810999929904938 0.625
O788 O 0.8948000073432922 0.4810999929904938 0.875
O789 O 0.8948000073432922 0.8144333362579346 0.125
O790 O 0.8948000073432922 0.8144333362579346 0.375
O791 O 0.8948000073432922 0.8144333362579346 0.625
O792 O 0.8948000073432922 0.8144333362579346 0.875
O793 O 0.41784998774528503 0.0 0.05757499858736992
O794 O 0.41784998774528503 0.0 0.307574987411499
O795 O 0.41784998774528503 0.0 0.557574987411499
O796 O 0.41784998774528503 0.0 0.807574987411499
O797 O 0.41784998774528503 0.3333333432674408 0.05757499858736992
O798 O 0.41784998774528503 0.3333333432674408 0.307574987411499
O799 O 0.41784998774528503 0.3333333432674408 0.557574987411499
O800 O 0.41784998774528503 0.3333333432674408 0.807574987411499
O801 O 0.41784998774528503 0.6666666865348816 0.05757499858736992
O802 O 0.41784998774528503 0.6666666865348816 0.307574987411499
O803 O 0.41784998774528503 0.6666666865348816 0.557574987411499
O804 O 0.41784998774528503 0.6666666865348816 0.807574987411499
O805 O 0.9178500175476074 0.0 0.05757499858736992
O806 O 0.9178500175476074 0.0 0.307574987411499
O807 O 0.9178500175476074 0.0 0.557574987411499
O808 O 0.9178500175476074 0.0 0.807574987411499
O809 O 0.9178500175476074 0.3333333432674408 0.05757499858736992
O810 O 0.9178500175476074 0.3333333432674408 0.307574987411499
O811 O 0.9178500175476074 0.3333333432674408 0.557574987411499
O812 O 0.9178500175476074 0.3333333432674408 0.807574987411499
O813 O 0.9178500175476074 0.6666666865348816 0.05757499858736992
O814 O 0.9178500175476074 0.6666666865348816 0.307574987411499
O815 O 0.9178500175476074 0.6666666865348816 0.557574987411499
O816 O 0.9178500175476074 0.6666666865348816 0.807574987411499
O817 O 0.41784998774528503 0.0 0.19242499768733978
O818 O 0.41784998774528503 0.0 0.442425012588501
O819 O 0.41784998774528503 0.0 0.692425012588501
O820 O 0.41784998774528503 0.0 0.942425012588501
O821 O 0.41784998774528503 0.3333333432674408 0.19242499768733978
O822 O 0.41784998774528503 0.3333333432674408 0.442425012588501
O823 O 0.41784998774528503 0.3333333432674408 0.692425012588501
O824 O 0.41784998774528503 0.3333333432674408 0.942425012588501
O825 O 0.41784998774528503 0.6666666865348816 0.19242499768733978
O826 O 0.41784998774528503 0.6666666865348816 0.442425012588501
O827 O 0.41784998774528503 0.6666666865348816 0.692425012588501
O828 O 0.41784998774528503 0.6666666865348816 0.942425012588501
O829 O 0.9178500175476074 0.0 0.19242499768733978
O830 O 0.9178500175476074 0.0 0.442425012588501
O831 O 0.9178500175476074 0.0 0.692425012588501
O832 O 0.9178500175476074 0.0 0.942425012588501
O833 O 0.9178500175476074 0.3333333432674408 0.19242499768733978
O834 O 0.9178500175476074 0.3333333432674408 0.442425012588501
O835 O 0.9178500175476074 0.3333333432674408 0.692425012588501
O836 O 0.9178500175476074 0.3333333432674408 0.942425012588501
O837 O 0.9178500175476074 0.6666666865348816 0.19242499768733978
O838 O 0.9178500175476074 0.6666666865348816 0.442425012588501
O839 O 0.9178500175476074 0.6666666865348816 0.692425012588501
O840 O 0.9178500175476074 0.6666666865348816 0.942425012588501
O841 O 0.4209499955177307 0.21023333072662354 0.08150000125169754
O842 O 0.4209499955177307 0.21023333072662354 0.33149999380111694
O843 O 0.4209499955177307 0.21023333072662354 0.5814999938011169
O844 O 0.4209499955177307 0.21023333072662354 0.8314999938011169
O845 O 0.4209499955177307 0.5435666441917419 0.08150000125169754
O846 O 0.4209499955177307 0.5435666441917419 0.33149999380111694
O847 O 0.4209499955177307 0.5435666441917419 0.5814999938011169
O848 O 0.4209499955177307 0.5435666441917419 0.8314999938011169
O849 O 0.4209499955177307 0.8769000172615051 0.08150000125169754
O850 O 0.4209499955177307 0.8769000172615051 0.33149999380111694
O851 O 0.4209499955177307 0.8769000172615051 0.5814999938011169
O852 O 0.4209499955177307 0.8769000172615051 0.8314999938011169
O853 O 0.9209499955177307 0.21023333072662354 0.08150000125169754
O854 O 0.9209499955177307 0.21023333072662354 0.33149999380111694
O855 O 0.9209499955177307 0.21023333072662354 0.5814999938011169
O856 O 0.9209499955177307 0.21023333072662354 0.8314999938011169
O857 O 0.9209499955177307 0.5435666441917419 0.08150000125169754
O858 O 0.9209499955177307 0.5435666441917419 0.33149999380111694
O859 O 0.9209499955177307 0.5435666441917419 0.5814999938011169
O860 O 0.9209499955177307 0.5435666441917419 0.8314999938011169
O861 O 0.9209499955177307 0.8769000172615051 0.08150000125169754
O862 O 0.9209499955177307 0.8769000172615051 0.33149999380111694
O863 O 0.9209499955177307 0.8769000172615051 0.5814999938011169
O864 O 0.9209499955177307 0.8769000172615051 0.8314999938011169
O865 O 0.4209499955177307 0.21023333072662354 0.16850000619888306
O866 O 0.4209499955177307 0.21023333072662354 0.41850000619888306
O867 O 0.4209499955177307 0.21023333072662354 0.6685000061988831
O868 O 0.4209499955177307 0.21023333072662354 0.9185000061988831
O869 O 0.4209499955177307 0.5435666441917419 0.16850000619888306
O870 O 0.4209499955177307 0.5435666441917419 0.41850000619888306
O871 O 0.4209499955177307 0.5435666441917419 0.6685000061988831
O872 O 0.4209499955177307 0.5435666441917419 0.9185000061988831
O873 O 0.4209499955177307 0.8769000172615051 0.16850000619888306
O874 O 0.4209499955177307 0.8769000172615051 0.41850000619888306
O875 O 0.4209499955177307 0.8769000172615051 0.6685000061988831
O876 O 0.4209499955177307 0.8769000172615051 0.9185000061988831
O877 O 0.9209499955177307 0.21023333072662354 0.16850000619888306
O878 O 0.9209499955177307 0.21023333072662354 0.41850000619888306
O879 O 0.9209499955177307 0.21023333072662354 0.6685000061988831
O880 O 0.9209499955177307 0.21023333072662354 0.9185000061988831
O881 O 0.9209499955177307 0.5435666441917419 0.16850000619888306
O882 O 0.9209499955177307 0.5435666441917419 0.41850000619888306
O883 O 0.9209499955177307 0.5435666441917419 0.6685000061988831
O884 O 0.9209499955177307 0.5435666441917419 0.9185000061988831
O885 O 0.9209499955177307 0.8769000172615051 0.16850000619888306
O886 O 0.9209499955177307 0.8769000172615051 0.41850000619888306
O887 O 0.9209499955177307 0.8769000172615051 0.6685000061988831
O888 O 0.9209499955177307 0.8769000172615051 0.9185000061988831
O889 O 0.4234499931335449 0.23336666822433472 0.0
O890 O 0.4234499931335449 0.23336666822433472 0.25
O891 O 0.4234499931335449 0.23336666822433472 0.5
O892 O 0.4234499931335449 0.23336666822433472 0.75
O893 O 0.4234499931335449 0.5666999816894531 0.0
O894 O 0.4234499931335449 0.5666999816894531 0.25
O895 O 0.4234499931335449 0.5666999816894531 0.5
O896 O 0.4234499931335449 0.5666999816894531 0.75
O897 O 0.4234499931335449 0.9000332951545715 0.0
O898 O 0.4234499931335449 0.9000332951545715 0.25
O899 O 0.4234499931335449 0.9000332951545715 0.5
O900 O 0.4234499931335449 0.9000332951545715 0.75
O901 O 0.9234499931335449 0.23336666822433472 0.0
O902 O 0.9234499931335449 0.23336666822433472 0.25
O903 O 0.9234499931335449 0.23336666822433472 0.5
O904 O 0.9234499931335449 0.23336666822433472 0.75
O905 O 0.9234499931335449 0.5666999816894531 0.0
O906 O 0.9234499931335449 0.5666999816894531 0.25
O907 O 0.9234499931335449 0.5666999816894531 0.5
O908 O 0.9234499931335449 0.5666999816894531 0.75
O909 O 0.9234499931335449 0.9000332951545715 0.0
O910 O 0.9234499931335449 0.9000332951545715 0.25
O911 O 0.9234499931335449 0.9000332951545715 0.5
O912 O 0.9234499931335449 0.9000332951545715 0.75
O913 O 0.42660000920295715 0.05103333294391632 0.0
O914 O 0.42660000920295715 0.05103333294391632 0.25
O915 O 0.42660000920295715 0.05103333294391632 0.5
O916 O 0.42660000920295715 0.05103333294391632 0.75
O917 O 0.42660000920295715 0.3843666613101959 0.0
O918 O 0.42660000920295715 0.3843666613101959 0.25
O919 O 0.42660000920295715 0.3843666613101959 0.5
O920 O 0.42660000920295715 0.3843666613101959 0.75
O921 O 0.42660000920295715 0.7177000045776367 0.0
O922 O 0.42660000920295715 0.7177000045776367 0.25
O923 O 0.42660000920295715 0.7177000045776367 0.5
O924 O 0.42660000920295715 0.7177000045776367 0.75
O925 O 0.9265999794006348 0.05103333294391632 0.0
O926 O 0.9265999794006348 0.05103333294391632 0.25
O927 O 0.9265999794006348 0.05103333294391632 0.5
O928 O 0.9265999794006348 0.05103333294391632 0.75
O929 O 0.9265999794006348 0.3843666613101959 0.0
O930 O 0.9265999794006348 0.3843666613101959 0.25
O931 O 0.9265999794006348 0.3843666613101959 0.5
O932 O 0.9265999794006348 0.3843666613101959 0.75
O933 O 0.9265999794006348 0.7177000045776367 0.0
O934 O 0.9265999794006348 0.7177000045776367 0.25
O935 O 0.9265999794006348 0.7177000045776367 0.5
O936 O 0.9265999794006348 0.7177000045776367 0.75
Si937 Si 0.06530000269412994 0.08709999918937683 0.05107500031590462
Si938 Si 0.06530000269412994 0.08709999918937683 0.3010750114917755
Si939 Si 0.06530000269412994 0.08709999918937683 0.5510749816894531
Si940 Si 0.06530000269412994 0.08709999918937683 0.8010749816894531
Si941 Si 0.06530000269412994 0.42043331265449524 0.05107500031590462
Si942 Si 0.06530000269412994 0.42043331265449524 0.3010750114917755
Si943 Si 0.06530000269412994 0.42043331265449524 0.5510749816894531
Si944 Si 0.06530000269412994 0.42043331265449524 0.8010749816894531
Si945 Si 0.06530000269412994 0.7537667155265808 0.05107500031590462
Si946 Si 0.06530000269412994 0.7537667155265808 0.3010750114917755
Si947 Si 0.06530000269412994 0.7537667155265808 0.5510749816894531
Si948 Si 0.06530000269412994 0.7537667155265808 0.8010749816894531
Si949 Si 0.5652999877929688 0.08709999918937683 0.05107500031590462
Si950 Si 0.5652999877929688 0.08709999918937683 0.3010750114917755
Si951 Si 0.5652999877929688 0.08709999918937683 0.5510749816894531
Si952 Si 0.5652999877929688 0.08709999918937683 0.8010749816894531
Si953 Si 0.5652999877929688 0.42043331265449524 0.05107500031590462
Si954 Si 0.5652999877929688 0.42043331265449524 0.3010750114917755
Si955 Si 0.5652999877929688 0.42043331265449524 0.5510749816894531
Si956 Si 0.5652999877929688 0.42043331265449524 0.8010749816894531
Si957 Si 0.5652999877929688 0.7537667155265808 0.05107500031590462
Si958 Si 0.5652999877929688 0.7537667155265808 0.3010750114917755
Si959 Si 0.5652999877929688 0.7537667155265808 0.5510749816894531
Si960 Si 0.5652999877929688 0.7537667155265808 0.8010749816894531
Si961 Si 0.06530000269412994 0.08709999918937683 0.19892500340938568
Si962 Si 0.06530000269412994 0.08709999918937683 0.4489249885082245
Si963 Si 0.06530000269412994 0.08709999918937683 0.6989250183105469
Si964 Si 0.06530000269412994 0.08709999918937683 0.9489250183105469
Si965 Si 0.06530000269412994 0.42043331265449524 0.19892500340938568
Si966 Si 0.06530000269412994 0.42043331265449524 0.4489249885082245
Si967 Si 0.06530000269412994 0.42043331265449524 0.6989250183105469
Si968 Si 0.06530000269412994 0.42043331265449524 0.9489250183105469
Si969 Si 0.06530000269412994 0.7537667155265808 0.19892500340938568
Si970 Si 0.06530000269412994 0.7537667155265808 0.4489249885082245
Si971 Si 0.06530000269412994 0.7537667155265808 0.6989250183105469
Si972 Si 0.06530000269412994 0.7537667155265808 0.9489250183105469
Si973 Si 0.5652999877929688 0.08709999918937683 0.19892500340938568
Si974 Si 0.5652999877929688 0.08709999918937683 0.4489249885082245
Si975 Si 0.5652999877929688 0.08709999918937683 0.6989250183105469
Si976 Si 0.5652999877929688 0.08709999918937683 0.9489250183105469
Si977 Si 0.5652999877929688 0.42043331265449524 0.19892500340938568
Si978 Si 0.5652999877929688 0.42043331265449524 0.4489249885082245
Si979 Si 0.5652999877929688 0.42043331265449524 0.6989250183105469
Si980 Si 0.5652999877929688 0.42043331265449524 0.9489250183105469
Si981 Si 0.5652999877929688 0.7537667155265808 0.19892500340938568
Si982 Si 0.5652999877929688 0.7537667155265808 0.4489249885082245
Si983 Si 0.5652999877929688 0.7537667155265808 0.6989250183105469
Si984 Si 0.5652999877929688 0.7537667155265808 0.9489250183105469
Si985 Si 0.0653500035405159 0.2898000180721283 0.05107500031590462
Si986 Si 0.0653500035405159 0.2898000180721283 0.3010750114917755
Si987 Si 0.0653500035405159 0.2898000180721283 0.5510749816894531
Si988 Si 0.0653500035405159 0.2898000180721283 0.8010749816894531
Si989 Si 0.0653500035405159 0.6231333613395691 0.05107500031590462
Si990 Si 0.0653500035405159 0.6231333613395691 0.3010750114917755
Si991 Si 0.0653500035405159 0.6231333613395691 0.5510749816894531
Si992 Si 0.0653500035405159 0.6231333613395691 0.8010749816894531
Si993 Si 0.0653500035405159 0.9564666748046875 0.05107500031590462
Si994 Si 0.0653500035405159 0.9564666748046875 0.3010750114917755
Si995 Si 0.0653500035405159 0.9564666748046875 0.5510749816894531
Si996 Si 0.0653500035405159 0.9564666748046875 0.8010749816894531
Si997 Si 0.5653499960899353 0.2898000180721283 0.05107500031590462
Si998 Si 0.5653499960899353 0.2898000180721283 0.3010750114917755
Si999 Si 0.5653499960899353 0.2898000180721283 0.5510749816894531
Si1000 Si 0.5653499960899353 0.2898000180721283 0.8010749816894531
Si1001 Si 0.5653499960899353 0.6231333613395691 0.05107500031590462
Si1002 Si 0.5653499960899353 0.6231333613395691 0.3010750114917755
Si1003 Si 0.5653499960899353 0.6231333613395691 0.5510749816894531
Si1004 Si 0.5653499960899353 0.6231333613395691 0.8010749816894531
Si1005 Si 0.5653499960899353 0.9564666748046875 0.05107500031590462
Si1006 Si 0.5653499960899353 0.9564666748046875 0.3010750114917755
Si1007 Si 0.5653499960899353 0.9564666748046875 0.5510749816894531
Si1008 Si 0.5653499960899353 0.9564666748046875 0.8010749816894531
Si1009 Si 0.0653500035405159 0.2898000180721283 0.19892500340938568
Si1010 Si 0.0653500035405159 0.2898000180721283 0.4489249885082245
Si1011 Si 0.0653500035405159 0.2898000180721283 0.6989250183105469
Si1012 Si 0.0653500035405159 0.2898000180721283 0.9489250183105469
Si1013 Si 0.0653500035405159 0.6231333613395691 0.19892500340938568
Si1014 Si 0.0653500035405159 0.6231333613395691 0.4489249885082245
Si1015 Si 0.0653500035405159 0.6231333613395691 0.6989250183105469
Si1016 Si 0.0653500035405159 0.6231333613395691 0.9489250183105469
Si1017 Si 0.0653500035405159 0.9564666748046875 0.19892500340938568
Si1018 Si 0.0653500035405159 0.9564666748046875 0.4489249885082245
Si1019 Si 0.0653500035405159 0.9564666748046875 0.6989250183105469
Si1020 Si 0.0653500035405159 0.9564666748046875 0.9489250183105469
Si1021 Si 0.5653499960899353 0.2898000180721283 0.19892500340938568
Si1022 Si 0.5653499960899353 0.2898000180721283 0.4489249885082245
Si1023 Si 0.5653499960899353 0.2898000180721283 0.6989250183105469
Si1024 Si 0.5653499960899353 0.2898000180721283 0.9489250183105469
Si1025 Si 0.5653499960899353 0.6231333613395691 0.19892500340938568
Si1026 Si 0.5653499960899353 0.6231333613395691 0.4489249885082245
Si1027 Si 0.5653499960899353 0.6231333613395691 0.6989250183105469
Si1028 Si 0.5653499960899353 0.6231333613395691 0.9489250183105469
Si1029 Si 0.5653499960899353 0.9564666748046875 0.19892500340938568
Si1030 Si 0.5653499960899353 0.9564666748046875 0.4489249885082245
Si1031 Si 0.5653499960899353 0.9564666748046875 0.6989250183105469
Si1032 Si 0.5653499960899353 0.9564666748046875 0.9489250183105469
Si1033 Si 0.06575000286102295 0.23703332245349884 0.125
Si1034 Si 0.06575000286102295 0.23703332245349884 0.375
Si1035 Si 0.06575000286102295 0.23703332245349884 0.625
Si1036 Si 0.06575000286102295 0.23703332245349884 0.875
Si1037 Si 0.06575000286102295 0.5703666806221008 0.125
Si1038 Si 0.06575000286102295 0.5703666806221008 0.375
Si1039 Si 0.06575000286102295 0.5703666806221008 0.625
Si1040 Si 0.06575000286102295 0.5703666806221008 0.875
Si1041 Si 0.06575000286102295 0.903700053691864 0.125
Si1042 Si 0.06575000286102295 0.903700053691864 0.375
Si1043 Si 0.06575000286102295 0.903700053691864 0.625
Si1044 Si 0.06575000286102295 0.903700053691864 0.875
Si1045 Si 0.565750002861023 0.23703332245349884 0.125
Si1046 Si 0.565750002861023 0.23703332245349884 0.375
Si1047 Si 0.565750002861023 0.23703332245349884 0.625
Si1048 Si 0.565750002861023 0.23703332245349884 0.875
Si1049 Si 0.565750002861023 0.5703666806221008 0.125
Si1050 Si 0.565750002861023 0.5703666806221008 0.375
Si1051 Si 0.565750002861023 0.5703666806221008 0.625
Si1052 Si 0.565750002861023 0.5703666806221008 0.875
Si1053 Si 0.565750002861023 0.903700053691864 0.125
Si1054 Si 0.565750002861023 0.903700053691864 0.375
Si1055 Si 0.565750002861023 0.903700053691864 0.625
Si1056 Si 0.565750002861023 0.903700053691864 0.875
Si1057 Si 0.13064999878406525 0.043533336371183395 0.05107500031590462
Si1058 Si 0.13064999878406525 0.043533336371183395 0.3010750114917755
Si1059 Si 0.13064999878406525 0.043533336371183395 0.5510749816894531
Si1060 Si 0.13064999878406525 0.043533336371183395 0.8010749816894531
Si1061 Si 0.13064999878406525 0.3768666684627533 0.05107500031590462
Si1062 Si 0.13064999878406525 0.3768666684627533 0.3010750114917755
Si1063 Si 0.13064999878406525 0.3768666684627533 0.5510749816894531
Si1064 Si 0.13064999878406525 0.3768666684627533 0.8010749816894531
Si1065 Si 0.13064999878406525 0.7102000117301941 0.05107500031590462
Si1066 Si 0.13064999878406525 0.7102000117301941 0.3010750114917755
Si1067 Si 0.13064999878406525 0.7102000117301941 0.5510749816894531
Si1068 Si 0.13064999878406525 0.7102000117301941 0.8010749816894531
Si1069 Si 0.630649983882904 0.043533336371183395 0.05107500031590462
Si1070 Si 0.630649983882904 0.043533336371183395 0.3010750114917755
Si1071 Si 0.630649983882904 0.043533336371183395 0.5510749816894531
Si1072 Si 0.630649983882904 0.043533336371183395 0.8010749816894531
Si1073 Si 0.630649983882904 0.3768666684627533 0.05107500031590462
Si1074 Si 0.630649983882904 0.3768666684627533 0.3010750114917755
Si1075 Si 0.630649983882904 0.3768666684627533 0.5510749816894531
Si1076 Si 0.630649983882904 0.3768666684627533 0.8010749816894531
Si1077 Si 0.630649983882904 0.7102000117301941 0.05107500031590462
Si1078 Si 0.630649983882904 0.7102000117301941 0.3010750114917755
Si1079 Si 0.630649983882904 0.7102000117301941 0.5510749816894531
Si1080 Si 0.630649983882904 0.7102000117301941 0.8010749816894531
Si1081 Si 0.13064999878406525 0.043533336371183395 0.19892500340938568
Si1082 Si 0.13064999878406525 0.043533336371183395 0.4489249885082245
Si1083 Si 0.13064999878406525 0.043533336371183395 0.6989250183105469
Si1084 Si 0.13064999878406525 0.043533336371183395 0.9489250183105469
Si1085 Si 0.13064999878406525 0.3768666684627533 0.19892500340938568
Si1086 Si 0.13064999878406525 0.3768666684627533 0.4489249885082245
Si1087 Si 0.13064999878406525 0.3768666684627533 0.6989250183105469
Si1088 Si 0.13064999878406525 0.3768666684627533 0.9489250183105469
Si1089 Si 0.13064999878406525 0.7102000117301941 0.19892500340938568
Si1090 Si 0.13064999878406525 0.7102000117301941 0.4489249885082245
Si1091 Si 0.13064999878406525 0.7102000117301941 0.6989250183105469
Si1092 Si 0.13064999878406525 0.7102000117301941 0.9489250183105469
Si1093 Si 0.630649983882904 0.043533336371183395 0.19892500340938568
Si1094 Si 0.630649983882904 0.043533336371183395 0.4489249885082245
Si1095 Si 0.630649983882904 0.043533336371183395 0.6989250183105469
Si1096 Si 0.630649983882904 0.043533336371183395 0.9489250183105469
Si1097 Si 0.630649983882904 0.3768666684627533 0.19892500340938568
Si1098 Si 0.630649983882904 0.3768666684627533 0.4489249885082245
Si1099 Si 0.630649983882904 0.3768666684627533 0.6989250183105469
Si1100 Si 0.630649983882904 0.3768666684627533 0.9489250183105469
Si1101 Si 0.630649983882904 0.7102000117301941 0.19892500340938568
Si1102 Si 0.630649983882904 0.7102000117301941 0.4489249885082245
Si1103 Si 0.630649983882904 0.7102000117301941 0.6989250183105469
Si1104 Si 0.630649983882904 0.7102000117301941 0.9489250183105469
Si1105 Si 0.14444999396800995 0.140133336186409 0.125
Si1106 Si 0.14444999396800995 0.140133336186409 0.375
Si1107 Si 0.14444999396800995 0.140133336186409 0.625
Si1108 Si 0.14444999396800995 0.140133336186409 0.875
Si1109 Si 0.14444999396800995 0.4734666645526886 0.125
Si1110 Si 0.14444999396800995 0.4734666645526886 0.375
Si1111 Si 0.14444999396800995 0.4734666645526886 0.625
Si1112 Si 0.14444999396800995 0.4734666645526886 0.875
Si1113 Si 0.14444999396800995 0.8067999482154846 0.125
Si1114 Si 0.14444999396800995 0.8067999482154846 0.375
Si1115 Si 0.14444999396800995 0.8067999482154846 0.625
Si1116 Si 0.14444999396800995 0.8067999482154846 0.875
Si1117 Si 0.6444500088691711 0.140133336186409 0.125
Si1118 Si 0.6444500088691711 0.140133336186409 0.375
Si1119 Si 0.6444500088691711 0.140133336186409 0.625
Si1120 Si 0.6444500088691711 0.140133336186409 0.875
Si1121 Si 0.6444500088691711 0.4734666645526886 0.125
Si1122 Si 0.6444500088691711 0.4734666645526886 0.375
Si1123 Si 0.6444500088691711 0.4734666645526886 0.625
Si1124 Si 0.6444500088691711 0.4734666645526886 0.875
Si1125 Si 0.6444500088691711 0.8067999482154846 0.125
Si1126 Si 0.6444500088691711 0.8067999482154846 0.375
Si1127 Si 0.6444500088691711 0.8067999482154846 0.625
Si1128 Si 0.6444500088691711 0.8067999482154846 0.875
Si1129 Si 0.16664999723434448 0.2222333401441574 0.125
Si1130 Si 0.16664999723434448 0.2222333401441574 0.375
Si1131 Si 0.16664999723434448 0.2222333401441574 0.625
Si1132 Si 0.16664999723434448 0.2222333401441574 0.875
Si1133 Si 0.16664999723434448 0.555566668510437 0.125
Si1134 Si 0.16664999723434448 0.555566668510437 0.375
Si1135 Si 0.16664999723434448 0.555566668510437 0.625
Si1136 Si 0.16664999723434448 0.555566668510437 0.875
Si1137 Si 0.16664999723434448 0.8888999819755554 0.125
Si1138 Si 0.16664999723434448 0.8888999819755554 0.375
Si1139 Si 0.16664999723434448 0.8888999819755554 0.625
Si1140 Si 0.16664999723434448 0.8888999819755554 0.875
Si1141 Si 0.6666499972343445 0.2222333401441574 0.125
Si1142 Si 0.6666499972343445 0.2222333401441574 0.375
Si1143 Si 0.6666499972343445 0.2222333401441574 0.625
Si1144 Si 0.6666499972343445 0.2222333401441574 0.875
Si1145 Si 0.6666499972343445 0.555566668510437 0.125
Si1146 Si 0.6666499972343445 0.555566668510437 0.375
Si1147 Si 0.6666499972343445 0.555566668510437 0.625
Si1148 Si 0.6666499972343445 0.555566668510437 0.875
Si1149 Si 0.6666499972343445 0.8888999819755554 0.125
Si1150 Si 0.6666499972343445 0.8888999819755554 0.375
Si1151 Si 0.6666499972343445 0.8888999819755554 0.625
Si1152 Si 0.6666499972343445 0.8888999819755554 0.875
Si1153 Si 0.2101999968290329 0.09629999846220016 0.125
Si1154 Si 0.2101999968290329 0.09629999846220016 0.375
Si1155 Si 0.2101999968290329 0.09629999846220016 0.625
Si1156 Si 0.2101999968290329 0.09629999846220016 0.875
Si1157 Si 0.2101999968290329 0.42963334918022156 0.125
Si1158 Si 0.2101999968290329 0.42963334918022156 0.375
Si1159 Si 0.2101999968290329 0.42963334918022156 0.625
Si1160 Si 0.2101999968290329 0.42963334918022156 0.875
Si1161 Si 0.2101999968290329 0.7629666328430176 0.125
Si1162 Si 0.2101999968290329 0.7629666328430176 0.375
Si1163 Si 0.2101999968290329 0.7629666328430176 0.625
Si1164 Si 0.2101999968290329 0.7629666328430176 0.875
Si1165 Si 0.7102000117301941 0.09629999846220016 0.125
Si1166 Si 0.7102000117301941 0.09629999846220016 0.375
Si1167 Si 0.7102000117301941 0.09629999846220016 0.625
Si1168 Si 0.7102000117301941 0.09629999846220016 0.875
Si1169 Si 0.7102000117301941 0.42963334918022156 0.125
Si1170 Si 0.7102000117301941 0.42963334918022156 0.375
Si1171 Si 0.7102000117301941 0.42963334918022156 0.625
Si1172 Si 0.7102000117301941 0.42963334918022156 0.875
Si1173 Si 0.7102000117301941 0.7629666328430176 0.125
Si1174 Si 0.7102000117301941 0.7629666328430176 0.375
Si1175 Si 0.7102000117301941 0.7629666328430176 0.625
Si1176 Si 0.7102000117301941 0.7629666328430176 0.875
Si1177 Si 0.2897999882698059 0.28949999809265137 0.125
Si1178 Si 0.2897999882698059 0.28949999809265137 0.375
Si1179 Si 0.2897999882698059 0.28949999809265137 0.625
Si1180 Si 0.2897999882698059 0.28949999809265137 0.875
Si1181 Si 0.2897999882698059 0.6228333115577698 0.125
Si1182 Si 0.2897999882698059 0.6228333115577698 0.375
Si1183 Si 0.2897999882698059 0.6228333115577698 0.625
Si1184 Si 0.2897999882698059 0.6228333115577698 0.875
Si1185 Si 0.2897999882698059 0.956166684627533 0.125
Si1186 Si 0.2897999882698059 0.956166684627533 0.375
Si1187 Si 0.2897999882698059 0.956166684627533 0.625
Si1188 Si 0.2897999882698059 0.956166684627533 0.875
Si1189 Si 0.7897999882698059 0.28949999809265137 0.125
Si1190 Si 0.7897999882698059 0.28949999809265137 0.375
Si1191 Si 0.7897999882698059 0.28949999809265137 0.625
Si1192 Si 0.7897999882698059 0.28949999809265137 0.875
Si1193 Si 0.7897999882698059 0.6228333115577698 0.125
Si1194 Si 0.7897999882698059 0.6228333115577698 0.375
Si1195 Si 0.7897999882698059 0.6228333115577698 0.625
Si1196 Si 0.7897999882698059 0.6228333115577698 0.875
Si1197 Si 0.7897999882698059 0.956166684627533 0.125
Si1198 Si 0.7897999882698059 0.956166684627533 0.375
Si1199 Si 0.7897999882698059 0.956166684627533 0.625
Si1200 Si 0.7897999882698059 0.956166684627533 0.875
Si1201 Si 0.33329999446868896 0.11109999567270279 0.125
Si1202 Si 0.33329999446868896 0.11109999567270279 0.375
Si1203 Si 0.33329999446868896 0.11109999567270279 0.625
Si1204 Si 0.33329999446868896 0.11109999567270279 0.875
Si1205 Si 0.33329999446868896 0.444433331489563 0.125
Si1206 Si 0.33329999446868896 0.444433331489563 0.375
Si1207 Si 0.33329999446868896 0.444433331489563 0.625
Si1208 Si 0.33329999446868896 0.444433331489563 0.875
Si1209 Si 0.33329999446868896 0.7777667045593262 0.125
Si1210 Si 0.33329999446868896 0.7777667045593262 0.375
Si1211 Si 0.33329999446868896 0.7777667045593262 0.625
Si1212 Si 0.33329999446868896 0.7777667045593262 0.875
Si1213 Si 0.833299994468689 0.11109999567270279 0.125
Si1214 Si 0.833299994468689 0.11109999567270279 0.375
Si1215 Si 0.833299994468689 0.11109999567270279 0.625
Si1216 Si 0.833299994468689 0.11109999567270279 0.875
Si1217 Si 0.833299994468689 0.444433331489563 0.125
Si1218 Si 0.833299994468689 0.444433331489563 0.375
Si1219 Si 0.833299994468689 0.444433331489563 0.625
Si1220 Si 0.833299994468689 0.444433331489563 0.875
Si1221 Si 0.833299994468689 0.7777667045593262 0.125
Si1222 Si 0.833299994468689 0.7777667045593262 0.375
Si1223 Si 0.833299994468689 0.7777667045593262 0.625
Si1224 Si 0.833299994468689 0.7777667045593262 0.875
Si1225 Si 0.35554999113082886 0.04383333399891853 0.125
Si1226 Si 0.35554999113082886 0.04383333399891853 0.375
Si1227 Si 0.35554999113082886 0.04383333399891853 0.625
Si1228 Si 0.35554999113082886 0.04383333399891853 0.875
Si1229 Si 0.35554999113082886 0.37716665863990784 0.125
Si1230 Si 0.35554999113082886 0.37716665863990784 0.375
Si1231 Si 0.35554999113082886 0.37716665863990784 0.625
Si1232 Si 0.35554999113082886 0.37716665863990784 0.875
Si1233 Si 0.35554999113082886 0.7105000019073486 0.125
Si1234 Si 0.35554999113082886 0.7105000019073486 0.375
Si1235 Si 0.35554999113082886 0.7105000019073486 0.625
Si1236 Si 0.35554999113082886 0.7105000019073486 0.875
Si1237 Si 0.8555499911308289 0.04383333399891853 0.125
Si1238 Si 0.8555499911308289 0.04383333399891853 0.375
Si1239 Si 0.8555499911308289 0.04383333399891853 0.625
Si1240 Si 0.8555499911308289 0.04383333399891853 0.875
Si1241 Si 0.8555499911308289 0.37716665863990784 0.125
Si1242 Si 0.8555499911308289 0.37716665863990784 0.375
Si1243 Si 0.8555499911308289 0.37716665863990784 0.625
Si1244 Si 0.8555499911308289 0.37716665863990784 0.875
Si1245 Si 0.8555499911308289 0.7105000019073486 0.125
Si1246 Si 0.8555499911308289 0.7105000019073486 0.375
Si1247 Si 0.8555499911308289 0.7105000019073486 0.625
Si1248 Si 0.8555499911308289 0.7105000019073486 0.875
Si1249 Si 0.36934998631477356 0.28976666927337646 0.05107500031590462
Si1250 Si 0.36934998631477356 0.28976666927337646 0.3010750114917755
Si1251 Si 0.36934998631477356 0.28976666927337646 0.5510749816894531
Si1252 Si 0.36934998631477356 0.28976666927337646 0.8010749816894531
Si1253 Si 0.36934998631477356 0.6230999827384949 0.05107500031590462
Si1254 Si 0.36934998631477356 0.6230999827384949 0.3010750114917755
Si1255 Si 0.36934998631477356 0.6230999827384949 0.5510749816894531
Si1256 Si 0.36934998631477356 0.6230999827384949 0.8010749816894531
Si1257 Si 0.36934998631477356 0.9564332962036133 0.05107500031590462
Si1258 Si 0.36934998631477356 0.9564332962036133 0.3010750114917755
Si1259 Si 0.36934998631477356 0.9564332962036133 0.5510749816894531
Si1260 Si 0.36934998631477356 0.9564332962036133 0.8010749816894531
Si1261 Si 0.869350016117096 0.28976666927337646 0.05107500031590462
Si1262 Si 0.869350016117096 0.28976666927337646 0.3010750114917755
Si1263 Si 0.869350016117096 0.28976666927337646 0.5510749816894531
Si1264 Si 0.869350016117096 0.28976666927337646 0.8010749816894531
Si1265 Si 0.869350016117096 0.6230999827384949 0.05107500031590462
Si1266 Si 0.869350016117096 0.6230999827384949 0.3010750114917755
Si1267 Si 0.869350016117096 0.6230999827384949 0.5510749816894531
Si1268 Si 0.869350016117096 0.6230999827384949 0.8010749816894531
Si1269 Si 0.869350016117096 0.9564332962036133 0.05107500031590462
Si1270 Si 0.869350016117096 0.9564332962036133 0.3010750114917755
Si1271 Si 0.869350016117096 0.9564332962036133 0.5510749816894531
Si1272 Si 0.869350016117096 0.9564332962036133 0.8010749816894531
Si1273 Si 0.36934998631477356 0.28976666927337646 0.19892500340938568
Si1274 Si 0.36934998631477356 0.28976666927337646 0.4489249885082245
Si1275 Si 0.36934998631477356 0.28976666927337646 0.6989250183105469
Si1276 Si 0.36934998631477356 0.28976666927337646 0.9489250183105469
Si1277 Si 0.36934998631477356 0.6230999827384949 0.19892500340938568
Si1278 Si 0.36934998631477356 0.6230999827384949 0.4489249885082245
Si1279 Si 0.36934998631477356 0.6230999827384949 0.6989250183105469
Si1280 Si 0.36934998631477356 0.6230999827384949 0.9489250183105469
Si1281 Si 0.36934998631477356 0.9564332962036133 0.19892500340938568
Si1282 Si 0.36934998631477356 0.9564332962036133 0.4489249885082245
Si1283 Si 0.36934998631477356 0.9564332962036133 0.6989250183105469
Si1284 Si 0.36934998631477356 0.9564332962036133 0.9489250183105469
Si1285 Si 0.869350016117096 0.28976666927337646 0.19892500340938568
Si1286 Si 0.869350016117096 0.28976666927337646 0.4489249885082245
Si1287 Si 0.869350016117096 0.28976666927337646 0.6989250183105469
Si1288 Si 0.869350016117096 0.28976666927337646 0.9489250183105469
Si1289 Si 0.869350016117096 0.6230999827384949 0.19892500340938568
Si1290 Si 0.869350016117096 0.6230999827384949 0.4489249885082245
Si1291 Si 0.869350016117096 0.6230999827384949 0.6989250183105469
Si1292 Si 0.869350016117096 0.6230999827384949 0.9489250183105469
Si1293 Si 0.869350016117096 0.9564332962036133 0.19892500340938568
Si1294 Si 0.869350016117096 0.9564332962036133 0.4489249885082245
Si1295 Si 0.869350016117096 0.9564332962036133 0.6989250183105469
Si1296 Si 0.869350016117096 0.9564332962036133 0.9489250183105469
Si1297 Si 0.43424999713897705 0.1931999921798706 0.125
Si1298 Si 0.43424999713897705 0.1931999921798706 0.375
Si1299 Si 0.43424999713897705 0.1931999921798706 0.625
Si1300 Si 0.43424999713897705 0.1931999921798706 0.875
Si1301 Si 0.43424999713897705 0.526533305644989 0.125
Si1302 Si 0.43424999713897705 0.526533305644989 0.375
Si1303 Si 0.43424999713897705 0.526533305644989 0.625
Si1304 Si 0.43424999713897705 0.526533305644989 0.875
Si1305 Si 0.43424999713897705 0.8598666787147522 0.125
Si1306 Si 0.43424999713897705 0.8598666787147522 0.375
Si1307 Si 0.43424999713897705 0.8598666787147522 0.625
Si1308 Si 0.43424999713897705 0.8598666787147522 0.875
Si1309 Si 0.934249997138977 0.1931999921798706 0.125
Si1310 Si 0.934249997138977 0.1931999921798706 0.375
Si1311 Si 0.934249997138977 0.1931999921798706 0.625
Si1312 Si 0.934249997138977 0.1931999921798706 0.875
Si1313 Si 0.934249997138977 0.526533305644989 0.125
Si1314 Si 0.934249997138977 0.526533305644989 0.375
Si1315 Si 0.934249997138977 0.526533305644989 0.625
Si1316 Si 0.934249997138977 0.526533305644989 0.875
Si1317 Si 0.934249997138977 0.8598666787147522 0.125
Si1318 Si 0.934249997138977 0.8598666787147522 0.375
Si1319 Si 0.934249997138977 0.8598666787147522 0.625
Si1320 Si 0.934249997138977 0.8598666787147522 0.875
Si1321 Si 0.4346500039100647 0.24623332917690277 0.05107500031590462
Si1322 Si 0.4346500039100647 0.24623332917690277 0.3010750114917755
Si1323 Si 0.4346500039100647 0.24623332917690277 0.5510749816894531
Si1324 Si 0.4346500039100647 0.24623332917690277 0.8010749816894531
Si1325 Si 0.4346500039100647 0.5795666575431824 0.05107500031590462
Si1326 Si 0.4346500039100647 0.5795666575431824 0.3010750114917755
Si1327 Si 0.4346500039100647 0.5795666575431824 0.5510749816894531
Si1328 Si 0.4346500039100647 0.5795666575431824 0.8010749816894531
Si1329 Si 0.4346500039100647 0.9128999710083008 0.05107500031590462
Si1330 Si 0.4346500039100647 0.9128999710083008 0.3010750114917755
Si1331 Si 0.4346500039100647 0.9128999710083008 0.5510749816894531
Si1332 Si 0.4346500039100647 0.9128999710083008 0.8010749816894531
Si1333 Si 0.9346500039100647 0.24623332917690277 0.05107500031590462
Si1334 Si 0.9346500039100647 0.24623332917690277 0.3010750114917755
Si1335 Si 0.9346500039100647 0.24623332917690277 0.5510749816894531
Si1336 Si 0.9346500039100647 0.24623332917690277 0.8010749816894531
Si1337 Si 0.9346500039100647 0.5795666575431824 0.05107500031590462
Si1338 Si 0.9346500039100647 0.5795666575431824 0.3010750114917755
Si1339 Si 0.9346500039100647 0.5795666575431824 0.5510749816894531
Si1340 Si 0.9346500039100647 0.5795666575431824 0.8010749816894531
Si1341 Si 0.9346500039100647 0.9128999710083008 0.05107500031590462
Si1342 Si 0.9346500039100647 0.9128999710083008 0.3010750114917755
Si1343 Si 0.9346500039100647 0.9128999710083008 0.5510749816894531
Si1344 Si 0.9346500039100647 0.9128999710083008 0.8010749816894531
Si1345 Si 0.4346500039100647 0.24623332917690277 0.19892500340938568
Si1346 Si 0.4346500039100647 0.24623332917690277 0.4489249885082245
Si1347 Si 0.4346500039100647 0.24623332917690277 0.6989250183105469
Si1348 Si 0.4346500039100647 0.24623332917690277 0.9489250183105469
Si1349 Si 0.4346500039100647 0.5795666575431824 0.19892500340938568
Si1350 Si 0.4346500039100647 0.5795666575431824 0.4489249885082245
Si1351 Si 0.4346500039100647 0.5795666575431824 0.6989250183105469
Si1352 Si 0.4346500039100647 0.5795666575431824 0.9489250183105469
Si1353 Si 0.4346500039100647 0.9128999710083008 0.19892500340938568
Si1354 Si 0.4346500039100647 0.9128999710083008 0.4489249885082245
Si1355 Si 0.4346500039100647 0.9128999710083008 0.6989250183105469
Si1356 Si 0.4346500039100647 0.9128999710083008 0.9489250183105469
Si1357 Si 0.9346500039100647 0.24623332917690277 0.19892500340938568
Si1358 Si 0.9346500039100647 0.24623332917690277 0.4489249885082245
Si1359 Si 0.9346500039100647 0.24623332917690277 0.6989250183105469
Si1360 Si 0.9346500039100647 0.24623332917690277 0.9489250183105469
Si1361 Si 0.9346500039100647 0.5795666575431824 0.19892500340938568
Si1362 Si 0.9346500039100647 0.5795666575431824 0.4489249885082245
Si1363 Si 0.9346500039100647 0.5795666575431824 0.6989250183105469
Si1364 Si 0.9346500039100647 0.5795666575431824 0.9489250183105469
Si1365 Si 0.9346500039100647 0.9128999710083008 0.19892500340938568
Si1366 Si 0.9346500039100647 0.9128999710083008 0.4489249885082245
Si1367 Si 0.9346500039100647 0.9128999710083008 0.6989250183105469
Si1368 Si 0.9346500039100647 0.9128999710083008 0.9489250183105469
Si1369 Si 0.43470001220703125 0.04356667026877403 0.05107500031590462
Si1370 Si 0.43470001220703125 0.04356667026877403 0.3010750114917755
Si1371 Si 0.43470001220703125 0.04356667026877403 0.5510749816894531
Si1372 Si 0.43470001220703125 0.04356667026877403 0.8010749816894531
Si1373 Si 0.43470001220703125 0.37689998745918274 0.05107500031590462
Si1374 Si 0.43470001220703125 0.37689998745918274 0.3010750114917755
Si1375 Si 0.43470001220703125 0.37689998745918274 0.5510749816894531
Si1376 Si 0.43470001220703125 0.37689998745918274 0.8010749816894531
Si1377 Si 0.43470001220703125 0.7102333903312683 0.05107500031590462
Si1378 Si 0.43470001220703125 0.7102333903312683 0.3010750114917755
Si1379 Si 0.43470001220703125 0.7102333903312683 0.5510749816894531
Si1380 Si 0.43470001220703125 0.7102333903312683 0.8010749816894531
Si1381 Si 0.9347000122070312 0.04356667026877403 0.05107500031590462
Si1382 Si 0.9347000122070312 0.04356667026877403 0.3010750114917755
Si1383 Si 0.9347000122070312 0.04356667026877403 0.5510749816894531
Si1384 Si 0.9347000122070312 0.04356667026877403 0.8010749816894531
Si1385 Si 0.9347000122070312 0.37689998745918274 0.05107500031590462
Si1386 Si 0.9347000122070312 0.37689998745918274 0.3010750114917755
Si1387 Si 0.9347000122070312 0.37689998745918274 0.5510749816894531
Si1388 Si 0.9347000122070312 0.37689998745918274 0.8010749816894531
Si1389 Si 0.9347000122070312 0.7102333903312683 0.05107500031590462
Si1390 Si 0.9347000122070312 0.7102333903312683 0.3010750114917755
Si1391 Si 0.9347000122070312 0.7102333903312683 0.5510749816894531
Si1392 Si 0.9347000122070312 0.7102333903312683 0.8010749816894531
Si1393 Si 0.43470001220703125 0.04356667026877403 0.19892500340938568
Si1394 Si 0.43470001220703125 0.04356667026877403 0.4489249885082245
Si1395 Si 0.43470001220703125 0.04356667026877403 0.6989250183105469
Si1396 Si 0.43470001220703125 0.04356667026877403 0.9489250183105469
Si1397 Si 0.43470001220703125 0.37689998745918274 0.19892500340938568
Si1398 Si 0.43470001220703125 0.37689998745918274 0.4489249885082245
Si1399 Si 0.43470001220703125 0.37689998745918274 0.6989250183105469
Si1400 Si 0.43470001220703125 0.37689998745918274 0.9489250183105469
Si1401 Si 0.43470001220703125 0.7102333903312683 0.19892500340938568
Si1402 Si 0.43470001220703125 0.7102333903312683 0.4489249885082245
Si1403 Si 0.43470001220703125 0.7102333903312683 0.6989250183105469
Si1404 Si 0.43470001220703125 0.7102333903312683 0.9489250183105469
Si1405 Si 0.9347000122070312 0.04356667026877403 0.19892500340938568
Si1406 Si 0.9347000122070312 0.04356667026877403 0.4489249885082245
Si1407 Si 0.9347000122070312 0.04356667026877403 0.6989250183105469
Si1408 Si 0.9347000122070312 0.04356667026877403 0.9489250183105469
Si1409 Si 0.9347000122070312 0.37689998745918274 0.19892500340938568
Si1410 Si 0.9347000122070312 0.37689998745918274 0.4489249885082245
Si1411 Si 0.9347000122070312 0.37689998745918274 0.6989250183105469
Si1412 Si 0.9347000122070312 0.37689998745918274 0.9489250183105469
Si1413 Si 0.9347000122070312 0.7102333903312683 0.19892500340938568
Si1414 Si 0.9347000122070312 0.7102333903312683 0.4489249885082245
Si1415 Si 0.9347000122070312 0.7102333903312683 0.6989250183105469
Si1416 Si 0.9347000122070312 0.7102333903312683 0.9489250183105469
