data_image0
_symmetry_space_group_name_H-M    "P 1"
_symmetry_int_tables_number       1

loop_
 _symmetry_equiv_pos_as_xyz
 'x, y, z'

_cell_length_a	36.36138
_cell_length_b	31.84059
_cell_length_c	25.28136
_cell_angle_alpha	90.00000
_cell_angle_beta	90.00000
_cell_angle_gamma	90.00000

loop_
 _atom_site_label
 _atom_site_type_symbol
 _atom_site_fract_x
 _atom_site_fract_y
 _atom_site_fract_z
O1 O 0.0 0.10779999941587448 0.07944999635219574
O2 O 0.0 0.10779999941587448 0.5794500112533569
O3 O 0.5 0.10779999941587448 0.07944999635219574
O4 O 0.5 0.10779999941587448 0.5794500112533569
O5 O 0.0 0.10779999941587448 0.42054998874664307
O6 O 0.0 0.10779999941587448 0.9205499887466431
O7 O 0.5 0.10779999941587448 0.42054998874664307
O8 O 0.5 0.10779999941587448 0.9205499887466431
O9 O 0.0 0.11420000344514847 0.25
O10 O 0.0 0.11420000344514847 0.75
O11 O 0.5 0.11420000344514847 0.25
O12 O 0.5 0.11420000344514847 0.75
O13 O 0.0 0.2720000147819519 0.17704999446868896
O14 O 0.0 0.2720000147819519 0.677049994468689
O15 O 0.5 0.2720000147819519 0.17704999446868896
O16 O 0.5 0.2720000147819519 0.677049994468689
O17 O 0.0 0.2720000147819519 0.32295000553131104
O18 O 0.0 0.2720000147819519 0.822950005531311
O19 O 0.5 0.2720000147819519 0.32295000553131104
O20 O 0.5 0.2720000147819519 0.822950005531311
O21 O 0.0 0.5 0.18195000290870667
O22 O 0.0 0.5 0.6819499731063843
O23 O 0.5 0.5 0.18195000290870667
O24 O 0.5 0.5 0.6819499731063843
O25 O 0.0 0.5 0.31804999709129333
O26 O 0.0 0.5 0.8180500268936157
O27 O 0.5 0.5 0.31804999709129333
O28 O 0.5 0.5 0.8180500268936157
O29 O 0.0 0.7279999852180481 0.17704999446868896
O30 O 0.0 0.7279999852180481 0.677049994468689
O31 O 0.5 0.7279999852180481 0.17704999446868896
O32 O 0.5 0.7279999852180481 0.677049994468689
O33 O 0.0 0.7279999852180481 0.32295000553131104
O34 O 0.0 0.7279999852180481 0.822950005531311
O35 O 0.5 0.7279999852180481 0.32295000553131104
O36 O 0.5 0.7279999852180481 0.822950005531311
O37 O 0.0 0.8858000040054321 0.25
O38 O 0.0 0.8858000040054321 0.75
O39 O 0.5 0.8858000040054321 0.25
O40 O 0.5 0.8858000040054321 0.75
O41 O 0.0 0.8921999931335449 0.07944999635219574
O42 O 0.0 0.8921999931335449 0.5794500112533569
O43 O 0.5 0.8921999931335449 0.07944999635219574
O44 O 0.5 0.8921999931335449 0.5794500112533569
O45 O 0.0 0.8921999931335449 0.42054998874664307
O46 O 0.0 0.8921999931335449 0.9205499887466431
O47 O 0.5 0.8921999931335449 0.42054998874664307
O48 O 0.5 0.8921999931335449 0.9205499887466431
O49 O 0.043150000274181366 0.12729999423027039 0.0
O50 O 0.043150000274181366 0.12729999423027039 0.5
O51 O 0.543150007724762 0.12729999423027039 0.0
O52 O 0.543150007724762 0.12729999423027039 0.5
O53 O 0.043150000274181366 0.8726999759674072 0.0
O54 O 0.043150000274181366 0.8726999759674072 0.5
O55 O 0.543150007724762 0.8726999759674072 0.0
O56 O 0.543150007724762 0.8726999759674072 0.5
O57 O 0.04650000110268593 0.24650000035762787 0.25
O58 O 0.04650000110268593 0.24650000035762787 0.75
O59 O 0.546500027179718 0.24650000035762787 0.25
O60 O 0.546500027179718 0.24650000035762787 0.75
O61 O 0.04650000110268593 0.7534999847412109 0.25
O62 O 0.04650000110268593 0.7534999847412109 0.75
O63 O 0.546500027179718 0.7534999847412109 0.25
O64 O 0.546500027179718 0.7534999847412109 0.75
O65 O 0.05389999970793724 0.15029999613761902 0.1979999989271164
O66 O 0.05389999970793724 0.15029999613761902 0.6980000138282776
O67 O 0.5539000034332275 0.15029999613761902 0.1979999989271164
O68 O 0.5539000034332275 0.15029999613761902 0.6980000138282776
O69 O 0.05389999970793724 0.15029999613761902 0.3019999861717224
O70 O 0.05389999970793724 0.15029999613761902 0.8019999861717224
O71 O 0.5539000034332275 0.15029999613761902 0.3019999861717224
O72 O 0.5539000034332275 0.15029999613761902 0.8019999861717224
O73 O 0.05389999970793724 0.8496999740600586 0.1979999989271164
O74 O 0.05389999970793724 0.8496999740600586 0.6980000138282776
O75 O 0.5539000034332275 0.8496999740600586 0.1979999989271164
O76 O 0.5539000034332275 0.8496999740600586 0.6980000138282776
O77 O 0.05389999970793724 0.8496999740600586 0.3019999861717224
O78 O 0.05389999970793724 0.8496999740600586 0.8019999861717224
O79 O 0.5539000034332275 0.8496999740600586 0.3019999861717224
O80 O 0.5539000034332275 0.8496999740600586 0.8019999861717224
O81 O 0.054999999701976776 0.5 0.25
O82 O 0.054999999701976776 0.5 0.75
O83 O 0.5550000071525574 0.5 0.25
O84 O 0.5550000071525574 0.5 0.75
O85 O 0.055799998342990875 0.22380000352859497 0.1509000062942505
O86 O 0.055799998342990875 0.22380000352859497 0.6509000062942505
O87 O 0.5558000206947327 0.22380000352859497 0.1509000062942505
O88 O 0.5558000206947327 0.22380000352859497 0.6509000062942505
O89 O 0.055799998342990875 0.22380000352859497 0.3490999937057495
O90 O 0.055799998342990875 0.22380000352859497 0.8490999937057495
O91 O 0.5558000206947327 0.22380000352859497 0.3490999937057495
O92 O 0.5558000206947327 0.22380000352859497 0.8490999937057495
O93 O 0.055799998342990875 0.776199996471405 0.1509000062942505
O94 O 0.055799998342990875 0.776199996471405 0.6509000062942505
O95 O 0.5558000206947327 0.776199996471405 0.1509000062942505
O96 O 0.5558000206947327 0.776199996471405 0.6509000062942505
O97 O 0.055799998342990875 0.776199996471405 0.3490999937057495
O98 O 0.055799998342990875 0.776199996471405 0.8490999937057495
O99 O 0.5558000206947327 0.776199996471405 0.3490999937057495
O100 O 0.5558000206947327 0.776199996471405 0.8490999937057495
O101 O 0.05900000035762787 0.15440000593662262 0.09475000202655792
O102 O 0.05900000035762787 0.15440000593662262 0.5947499871253967
O103 O 0.5590000152587891 0.15440000593662262 0.09475000202655792
O104 O 0.5590000152587891 0.15440000593662262 0.5947499871253967
O105 O 0.05900000035762787 0.15440000593662262 0.40525001287460327
O106 O 0.05900000035762787 0.15440000593662262 0.9052500128746033
O107 O 0.5590000152587891 0.15440000593662262 0.40525001287460327
O108 O 0.5590000152587891 0.15440000593662262 0.9052500128746033
O109 O 0.05900000035762787 0.8456000089645386 0.09475000202655792
O110 O 0.05900000035762787 0.8456000089645386 0.5947499871253967
O111 O 0.5590000152587891 0.8456000089645386 0.09475000202655792
O112 O 0.5590000152587891 0.8456000089645386 0.5947499871253967
O113 O 0.05900000035762787 0.8456000089645386 0.40525001287460327
O114 O 0.05900000035762787 0.8456000089645386 0.9052500128746033
O115 O 0.5590000152587891 0.8456000089645386 0.40525001287460327
O116 O 0.5590000152587891 0.8456000089645386 0.9052500128746033
O117 O 0.060499999672174454 0.45879998803138733 0.16005000472068787
O118 O 0.060499999672174454 0.45879998803138733 0.6600499749183655
O119 O 0.5605000257492065 0.45879998803138733 0.16005000472068787
O120 O 0.5605000257492065 0.45879998803138733 0.6600499749183655
O121 O 0.060499999672174454 0.45879998803138733 0.33994999527931213
O122 O 0.060499999672174454 0.45879998803138733 0.8399500250816345
O123 O 0.5605000257492065 0.45879998803138733 0.33994999527931213
O124 O 0.5605000257492065 0.45879998803138733 0.8399500250816345
O125 O 0.060499999672174454 0.5411999821662903 0.16005000472068787
O126 O 0.060499999672174454 0.5411999821662903 0.6600499749183655
O127 O 0.5605000257492065 0.5411999821662903 0.16005000472068787
O128 O 0.5605000257492065 0.5411999821662903 0.6600499749183655
O129 O 0.060499999672174454 0.5411999821662903 0.33994999527931213
O130 O 0.060499999672174454 0.5411999821662903 0.8399500250816345
O131 O 0.5605000257492065 0.5411999821662903 0.33994999527931213
O132 O 0.5605000257492065 0.5411999821662903 0.8399500250816345
O133 O 0.06485000252723694 0.07970000058412552 0.25
O134 O 0.06485000252723694 0.07970000058412552 0.75
O135 O 0.5648499727249146 0.07970000058412552 0.25
O136 O 0.5648499727249146 0.07970000058412552 0.75
O137 O 0.06485000252723694 0.9203000068664551 0.25
O138 O 0.06485000252723694 0.9203000068664551 0.75
O139 O 0.5648499727249146 0.9203000068664551 0.25
O140 O 0.5648499727249146 0.9203000068664551 0.75
O141 O 0.06624999642372131 0.07419999688863754 0.07235000282526016
O142 O 0.06624999642372131 0.07419999688863754 0.572350025177002
O143 O 0.5662500262260437 0.07419999688863754 0.07235000282526016
O144 O 0.5662500262260437 0.07419999688863754 0.572350025177002
O145 O 0.06624999642372131 0.07419999688863754 0.427700012922287
O146 O 0.06624999642372131 0.07419999688863754 0.9276999831199646
O147 O 0.5662500262260437 0.07419999688863754 0.427700012922287
O148 O 0.5662500262260437 0.07419999688863754 0.9276999831199646
O149 O 0.06624999642372131 0.9258000254631042 0.07235000282526016
O150 O 0.06624999642372131 0.9258000254631042 0.572350025177002
O151 O 0.5662500262260437 0.9258000254631042 0.07235000282526016
O152 O 0.5662500262260437 0.9258000254631042 0.572350025177002
O153 O 0.06624999642372131 0.9258000254631042 0.427700012922287
O154 O 0.06624999642372131 0.9258000254631042 0.9276999831199646
O155 O 0.5662500262260437 0.9258000254631042 0.427700012922287
O156 O 0.5662500262260437 0.9258000254631042 0.9276999831199646
O157 O 0.06714999675750732 0.30219998955726624 0.17919999361038208
O158 O 0.06714999675750732 0.30219998955726624 0.6791999936103821
O159 O 0.5671499967575073 0.30219998955726624 0.17919999361038208
O160 O 0.5671499967575073 0.30219998955726624 0.6791999936103821
O161 O 0.06714999675750732 0.30219998955726624 0.3208000063896179
O162 O 0.06714999675750732 0.30219998955726624 0.8208000063896179
O163 O 0.5671499967575073 0.30219998955726624 0.3208000063896179
O164 O 0.5671499967575073 0.30219998955726624 0.8208000063896179
O165 O 0.06714999675750732 0.6977999806404114 0.17919999361038208
O166 O 0.06714999675750732 0.6977999806404114 0.6791999936103821
O167 O 0.5671499967575073 0.6977999806404114 0.17919999361038208
O168 O 0.5671499967575073 0.6977999806404114 0.6791999936103821
O169 O 0.06714999675750732 0.6977999806404114 0.3208000063896179
O170 O 0.06714999675750732 0.6977999806404114 0.8208000063896179
O171 O 0.5671499967575073 0.6977999806404114 0.3208000063896179
O172 O 0.5671499967575073 0.6977999806404114 0.8208000063896179
O173 O 0.08415000140666962 0.0 0.25
O174 O 0.08415000140666962 0.0 0.75
O175 O 0.5841500163078308 0.0 0.25
O176 O 0.5841500163078308 0.0 0.75
O177 O 0.08510000258684158 0.3815000057220459 0.16885000467300415
O178 O 0.08510000258684158 0.3815000057220459 0.6688500046730042
O179 O 0.585099995136261 0.3815000057220459 0.16885000467300415
O180 O 0.585099995136261 0.3815000057220459 0.6688500046730042
O181 O 0.08510000258684158 0.3815000057220459 0.33114999532699585
O182 O 0.08510000258684158 0.3815000057220459 0.8311499953269958
O183 O 0.585099995136261 0.3815000057220459 0.33114999532699585
O184 O 0.585099995136261 0.3815000057220459 0.8311499953269958
O185 O 0.08510000258684158 0.6184999942779541 0.16885000467300415
O186 O 0.08510000258684158 0.6184999942779541 0.6688500046730042
O187 O 0.585099995136261 0.6184999942779541 0.16885000467300415
O188 O 0.585099995136261 0.6184999942779541 0.6688500046730042
O189 O 0.08510000258684158 0.6184999942779541 0.33114999532699585
O190 O 0.08510000258684158 0.6184999942779541 0.8311499953269958
O191 O 0.585099995136261 0.6184999942779541 0.33114999532699585
O192 O 0.585099995136261 0.6184999942779541 0.8311499953269958
O193 O 0.09780000150203705 0.0 0.07644999772310257
O194 O 0.09780000150203705 0.0 0.576449990272522
O195 O 0.5978000164031982 0.0 0.07644999772310257
O196 O 0.5978000164031982 0.0 0.576449990272522
O197 O 0.09780000150203705 0.0 0.423550009727478
O198 O 0.09780000150203705 0.0 0.923550009727478
O199 O 0.5978000164031982 0.0 0.423550009727478
O200 O 0.5978000164031982 0.0 0.923550009727478
O201 O 0.11010000109672546 0.33820000290870667 0.25
O202 O 0.11010000109672546 0.33820000290870667 0.75
O203 O 0.6100999712944031 0.33820000290870667 0.25
O204 O 0.6100999712944031 0.33820000290870667 0.75
O205 O 0.11010000109672546 0.6618000268936157 0.25
O206 O 0.11010000109672546 0.6618000268936157 0.75
O207 O 0.6100999712944031 0.6618000268936157 0.25
O208 O 0.6100999712944031 0.6618000268936157 0.75
O209 O 0.1136000007390976 0.43220001459121704 0.09714999794960022
O210 O 0.1136000007390976 0.43220001459121704 0.5971500277519226
O211 O 0.6136000156402588 0.43220001459121704 0.09714999794960022
O212 O 0.6136000156402588 0.43220001459121704 0.5971500277519226
O213 O 0.1136000007390976 0.43220001459121704 0.4028500020503998
O214 O 0.1136000007390976 0.43220001459121704 0.9028499722480774
O215 O 0.6136000156402588 0.43220001459121704 0.4028500020503998
O216 O 0.6136000156402588 0.43220001459121704 0.9028499722480774
O217 O 0.1136000007390976 0.567799985408783 0.09714999794960022
O218 O 0.1136000007390976 0.567799985408783 0.5971500277519226
O219 O 0.6136000156402588 0.567799985408783 0.09714999794960022
O220 O 0.6136000156402588 0.567799985408783 0.5971500277519226
O221 O 0.1136000007390976 0.567799985408783 0.4028500020503998
O222 O 0.1136000007390976 0.567799985408783 0.9028499722480774
O223 O 0.6136000156402588 0.567799985408783 0.4028500020503998
O224 O 0.6136000156402588 0.567799985408783 0.9028499722480774
O225 O 0.11474999785423279 0.05260000005364418 0.0
O226 O 0.11474999785423279 0.05260000005364418 0.5
O227 O 0.6147500276565552 0.05260000005364418 0.0
O228 O 0.6147500276565552 0.05260000005364418 0.5
O229 O 0.11474999785423279 0.9473999738693237 0.0
O230 O 0.11474999785423279 0.9473999738693237 0.5
O231 O 0.6147500276565552 0.9473999738693237 0.0
O232 O 0.6147500276565552 0.9473999738693237 0.5
O233 O 0.1151999980211258 0.1768999993801117 0.15410000085830688
O234 O 0.1151999980211258 0.1768999993801117 0.6541000008583069
O235 O 0.6151999831199646 0.1768999993801117 0.15410000085830688
O236 O 0.6151999831199646 0.1768999993801117 0.6541000008583069
O237 O 0.1151999980211258 0.1768999993801117 0.3458999991416931
O238 O 0.1151999980211258 0.1768999993801117 0.8458999991416931
O239 O 0.6151999831199646 0.1768999993801117 0.3458999991416931
O240 O 0.6151999831199646 0.1768999993801117 0.8458999991416931
O241 O 0.1151999980211258 0.8230999708175659 0.15410000085830688
O242 O 0.1151999980211258 0.8230999708175659 0.6541000008583069
O243 O 0.6151999831199646 0.8230999708175659 0.15410000085830688
O244 O 0.6151999831199646 0.8230999708175659 0.6541000008583069
O245 O 0.1151999980211258 0.8230999708175659 0.3458999991416931
O246 O 0.1151999980211258 0.8230999708175659 0.8458999991416931
O247 O 0.6151999831199646 0.8230999708175659 0.3458999991416931
O248 O 0.6151999831199646 0.8230999708175659 0.8458999991416931
O249 O 0.12349999696016312 0.054999999701976776 0.19785000383853912
O250 O 0.12349999696016312 0.054999999701976776 0.6978499889373779
O251 O 0.6234999895095825 0.054999999701976776 0.19785000383853912
O252 O 0.6234999895095825 0.054999999701976776 0.6978499889373779
O253 O 0.12349999696016312 0.054999999701976776 0.30215001106262207
O254 O 0.12349999696016312 0.054999999701976776 0.8021500110626221
O255 O 0.6234999895095825 0.054999999701976776 0.30215001106262207
O256 O 0.6234999895095825 0.054999999701976776 0.8021500110626221
O257 O 0.12349999696016312 0.9449999928474426 0.19785000383853912
O258 O 0.12349999696016312 0.9449999928474426 0.6978499889373779
O259 O 0.6234999895095825 0.9449999928474426 0.19785000383853912
O260 O 0.6234999895095825 0.9449999928474426 0.6978499889373779
O261 O 0.12349999696016312 0.9449999928474426 0.30215001106262207
O262 O 0.12349999696016312 0.9449999928474426 0.8021500110626221
O263 O 0.6234999895095825 0.9449999928474426 0.30215001106262207
O264 O 0.6234999895095825 0.9449999928474426 0.8021500110626221
O265 O 0.1264999955892563 0.4449999928474426 0.19785000383853912
O266 O 0.1264999955892563 0.4449999928474426 0.6978499889373779
O267 O 0.6265000104904175 0.4449999928474426 0.19785000383853912
O268 O 0.6265000104904175 0.4449999928474426 0.6978499889373779
O269 O 0.1264999955892563 0.4449999928474426 0.30215001106262207
O270 O 0.1264999955892563 0.4449999928474426 0.8021500110626221
O271 O 0.6265000104904175 0.4449999928474426 0.30215001106262207
O272 O 0.6265000104904175 0.4449999928474426 0.8021500110626221
O273 O 0.1264999955892563 0.5550000071525574 0.19785000383853912
O274 O 0.1264999955892563 0.5550000071525574 0.6978499889373779
O275 O 0.6265000104904175 0.5550000071525574 0.19785000383853912
O276 O 0.6265000104904175 0.5550000071525574 0.6978499889373779
O277 O 0.1264999955892563 0.5550000071525574 0.30215001106262207
O278 O 0.1264999955892563 0.5550000071525574 0.8021500110626221
O279 O 0.6265000104904175 0.5550000071525574 0.30215001106262207
O280 O 0.6265000104904175 0.5550000071525574 0.8021500110626221
O281 O 0.1348000019788742 0.3231000006198883 0.15410000085830688
O282 O 0.1348000019788742 0.3231000006198883 0.6541000008583069
O283 O 0.6348000168800354 0.3231000006198883 0.15410000085830688
O284 O 0.6348000168800354 0.3231000006198883 0.6541000008583069
O285 O 0.1348000019788742 0.3231000006198883 0.3458999991416931
O286 O 0.1348000019788742 0.3231000006198883 0.8458999991416931
O287 O 0.6348000168800354 0.3231000006198883 0.3458999991416931
O288 O 0.6348000168800354 0.3231000006198883 0.8458999991416931
O289 O 0.1348000019788742 0.6769000291824341 0.15410000085830688
O290 O 0.1348000019788742 0.6769000291824341 0.6541000008583069
O291 O 0.6348000168800354 0.6769000291824341 0.15410000085830688
O292 O 0.6348000168800354 0.6769000291824341 0.6541000008583069
O293 O 0.1348000019788742 0.6769000291824341 0.3458999991416931
O294 O 0.1348000019788742 0.6769000291824341 0.8458999991416931
O295 O 0.6348000168800354 0.6769000291824341 0.3458999991416931
O296 O 0.6348000168800354 0.6769000291824341 0.8458999991416931
O297 O 0.1352500021457672 0.4474000036716461 0.0
O298 O 0.1352500021457672 0.4474000036716461 0.5
O299 O 0.6352499723434448 0.4474000036716461 0.0
O300 O 0.6352499723434448 0.4474000036716461 0.5
O301 O 0.1352500021457672 0.5526000261306763 0.0
O302 O 0.1352500021457672 0.5526000261306763 0.5
O303 O 0.6352499723434448 0.5526000261306763 0.0
O304 O 0.6352499723434448 0.5526000261306763 0.5
O305 O 0.1363999992609024 0.06780000030994415 0.09714999794960022
O306 O 0.1363999992609024 0.06780000030994415 0.5971500277519226
O307 O 0.6363999843597412 0.06780000030994415 0.09714999794960022
O308 O 0.6363999843597412 0.06780000030994415 0.5971500277519226
O309 O 0.1363999992609024 0.06780000030994415 0.4028500020503998
O310 O 0.1363999992609024 0.06780000030994415 0.9028499722480774
O311 O 0.6363999843597412 0.06780000030994415 0.4028500020503998
O312 O 0.6363999843597412 0.06780000030994415 0.9028499722480774
O313 O 0.1363999992609024 0.932200014591217 0.09714999794960022
O314 O 0.1363999992609024 0.932200014591217 0.5971500277519226
O315 O 0.6363999843597412 0.932200014591217 0.09714999794960022
O316 O 0.6363999843597412 0.932200014591217 0.5971500277519226
O317 O 0.1363999992609024 0.932200014591217 0.4028500020503998
O318 O 0.1363999992609024 0.932200014591217 0.9028499722480774
O319 O 0.6363999843597412 0.932200014591217 0.4028500020503998
O320 O 0.6363999843597412 0.932200014591217 0.9028499722480774
O321 O 0.13989999890327454 0.16179999709129333 0.25
O322 O 0.13989999890327454 0.16179999709129333 0.75
O323 O 0.6399000287055969 0.16179999709129333 0.25
O324 O 0.6399000287055969 0.16179999709129333 0.75
O325 O 0.13989999890327454 0.8381999731063843 0.25
O326 O 0.13989999890327454 0.8381999731063843 0.75
O327 O 0.6399000287055969 0.8381999731063843 0.25
O328 O 0.6399000287055969 0.8381999731063843 0.75
O329 O 0.15219999849796295 0.5 0.07644999772310257
O330 O 0.15219999849796295 0.5 0.576449990272522
O331 O 0.6521999835968018 0.5 0.07644999772310257
O332 O 0.6521999835968018 0.5 0.576449990272522
O333 O 0.15219999849796295 0.5 0.423550009727478
O334 O 0.15219999849796295 0.5 0.923550009727478
O335 O 0.6521999835968018 0.5 0.423550009727478
O336 O 0.6521999835968018 0.5 0.923550009727478
O337 O 0.164900004863739 0.1185000017285347 0.16885000467300415
O338 O 0.164900004863739 0.1185000017285347 0.6688500046730042
O339 O 0.664900004863739 0.1185000017285347 0.16885000467300415
O340 O 0.664900004863739 0.1185000017285347 0.6688500046730042
O341 O 0.164900004863739 0.1185000017285347 0.33114999532699585
O342 O 0.164900004863739 0.1185000017285347 0.8311499953269958
O343 O 0.664900004863739 0.1185000017285347 0.33114999532699585
O344 O 0.664900004863739 0.1185000017285347 0.8311499953269958
O345 O 0.164900004863739 0.8815000057220459 0.16885000467300415
O346 O 0.164900004863739 0.8815000057220459 0.6688500046730042
O347 O 0.664900004863739 0.8815000057220459 0.16885000467300415
O348 O 0.664900004863739 0.8815000057220459 0.6688500046730042
O349 O 0.164900004863739 0.8815000057220459 0.33114999532699585
O350 O 0.164900004863739 0.8815000057220459 0.8311499953269958
O351 O 0.664900004863739 0.8815000057220459 0.33114999532699585
O352 O 0.664900004863739 0.8815000057220459 0.8311499953269958
O353 O 0.16584999859333038 0.5 0.25
O354 O 0.16584999859333038 0.5 0.75
O355 O 0.6658499836921692 0.5 0.25
O356 O 0.6658499836921692 0.5 0.75
O357 O 0.18285000324249268 0.19779999554157257 0.17919999361038208
O358 O 0.18285000324249268 0.19779999554157257 0.6791999936103821
O359 O 0.6828500032424927 0.19779999554157257 0.17919999361038208
O360 O 0.6828500032424927 0.19779999554157257 0.6791999936103821
O361 O 0.18285000324249268 0.19779999554157257 0.3208000063896179
O362 O 0.18285000324249268 0.19779999554157257 0.8208000063896179
O363 O 0.6828500032424927 0.19779999554157257 0.3208000063896179
O364 O 0.6828500032424927 0.19779999554157257 0.8208000063896179
O365 O 0.18285000324249268 0.8022000193595886 0.17919999361038208
O366 O 0.18285000324249268 0.8022000193595886 0.6791999936103821
O367 O 0.6828500032424927 0.8022000193595886 0.17919999361038208
O368 O 0.6828500032424927 0.8022000193595886 0.6791999936103821
O369 O 0.18285000324249268 0.8022000193595886 0.3208000063896179
O370 O 0.18285000324249268 0.8022000193595886 0.8208000063896179
O371 O 0.6828500032424927 0.8022000193595886 0.3208000063896179
O372 O 0.6828500032424927 0.8022000193595886 0.8208000063896179
O373 O 0.1837500035762787 0.42579999566078186 0.07235000282526016
O374 O 0.1837500035762787 0.42579999566078186 0.572350025177002
O375 O 0.6837499737739563 0.42579999566078186 0.07235000282526016
O376 O 0.6837499737739563 0.42579999566078186 0.572350025177002
O377 O 0.1837500035762787 0.42579999566078186 0.427700012922287
O378 O 0.1837500035762787 0.42579999566078186 0.9276999831199646
O379 O 0.6837499737739563 0.42579999566078186 0.427700012922287
O380 O 0.6837499737739563 0.42579999566078186 0.9276999831199646
O381 O 0.1837500035762787 0.5741999745368958 0.07235000282526016
O382 O 0.1837500035762787 0.5741999745368958 0.572350025177002
O383 O 0.6837499737739563 0.5741999745368958 0.07235000282526016
O384 O 0.6837499737739563 0.5741999745368958 0.572350025177002
O385 O 0.1837500035762787 0.5741999745368958 0.427700012922287
O386 O 0.1837500035762787 0.5741999745368958 0.9276999831199646
O387 O 0.6837499737739563 0.5741999745368958 0.427700012922287
O388 O 0.6837499737739563 0.5741999745368958 0.9276999831199646
O389 O 0.18514999747276306 0.4203000068664551 0.25
O390 O 0.18514999747276306 0.4203000068664551 0.75
O391 O 0.6851500272750854 0.4203000068664551 0.25
O392 O 0.6851500272750854 0.4203000068664551 0.75
O393 O 0.18514999747276306 0.5796999931335449 0.25
O394 O 0.18514999747276306 0.5796999931335449 0.75
O395 O 0.6851500272750854 0.5796999931335449 0.25
O396 O 0.6851500272750854 0.5796999931335449 0.75
O397 O 0.18950000405311584 0.041200000792741776 0.16005000472068787
O398 O 0.18950000405311584 0.041200000792741776 0.6600499749183655
O399 O 0.6894999742507935 0.041200000792741776 0.16005000472068787
O400 O 0.6894999742507935 0.041200000792741776 0.6600499749183655
O401 O 0.18950000405311584 0.041200000792741776 0.33994999527931213
O402 O 0.18950000405311584 0.041200000792741776 0.8399500250816345
O403 O 0.6894999742507935 0.041200000792741776 0.33994999527931213
O404 O 0.6894999742507935 0.041200000792741776 0.8399500250816345
O405 O 0.18950000405311584 0.9588000178337097 0.16005000472068787
O406 O 0.18950000405311584 0.9588000178337097 0.6600499749183655
O407 O 0.6894999742507935 0.9588000178337097 0.16005000472068787
O408 O 0.6894999742507935 0.9588000178337097 0.6600499749183655
O409 O 0.18950000405311584 0.9588000178337097 0.33994999527931213
O410 O 0.18950000405311584 0.9588000178337097 0.8399500250816345
O411 O 0.6894999742507935 0.9588000178337097 0.33994999527931213
O412 O 0.6894999742507935 0.9588000178337097 0.8399500250816345
O413 O 0.19099999964237213 0.3456000089645386 0.09475000202655792
O414 O 0.19099999964237213 0.3456000089645386 0.5947499871253967
O415 O 0.6909999847412109 0.3456000089645386 0.09475000202655792
O416 O 0.6909999847412109 0.3456000089645386 0.5947499871253967
O417 O 0.19099999964237213 0.3456000089645386 0.40525001287460327
O418 O 0.19099999964237213 0.3456000089645386 0.9052500128746033
O419 O 0.6909999847412109 0.3456000089645386 0.40525001287460327
O420 O 0.6909999847412109 0.3456000089645386 0.9052500128746033
O421 O 0.19099999964237213 0.6543999910354614 0.09475000202655792
O422 O 0.19099999964237213 0.6543999910354614 0.5947499871253967
O423 O 0.6909999847412109 0.6543999910354614 0.09475000202655792
O424 O 0.6909999847412109 0.6543999910354614 0.5947499871253967
O425 O 0.19099999964237213 0.6543999910354614 0.40525001287460327
O426 O 0.19099999964237213 0.6543999910354614 0.9052500128746033
O427 O 0.6909999847412109 0.6543999910354614 0.40525001287460327
O428 O 0.6909999847412109 0.6543999910354614 0.9052500128746033
O429 O 0.19419999420642853 0.27619999647140503 0.1509000062942505
O430 O 0.19419999420642853 0.27619999647140503 0.6509000062942505
O431 O 0.6941999793052673 0.27619999647140503 0.1509000062942505
O432 O 0.6941999793052673 0.27619999647140503 0.6509000062942505
O433 O 0.19419999420642853 0.27619999647140503 0.3490999937057495
O434 O 0.19419999420642853 0.27619999647140503 0.8490999937057495
O435 O 0.6941999793052673 0.27619999647140503 0.3490999937057495
O436 O 0.6941999793052673 0.27619999647140503 0.8490999937057495
O437 O 0.19419999420642853 0.723800003528595 0.1509000062942505
O438 O 0.19419999420642853 0.723800003528595 0.6509000062942505
O439 O 0.6941999793052673 0.723800003528595 0.1509000062942505
O440 O 0.6941999793052673 0.723800003528595 0.6509000062942505
O441 O 0.19419999420642853 0.723800003528595 0.3490999937057495
O442 O 0.19419999420642853 0.723800003528595 0.8490999937057495
O443 O 0.6941999793052673 0.723800003528595 0.3490999937057495
O444 O 0.6941999793052673 0.723800003528595 0.8490999937057495
O445 O 0.19499999284744263 0.0 0.25
O446 O 0.19499999284744263 0.0 0.75
O447 O 0.6949999928474426 0.0 0.25
O448 O 0.6949999928474426 0.0 0.75
O449 O 0.19609999656677246 0.349700003862381 0.1979999989271164
O450 O 0.19609999656677246 0.349700003862381 0.6980000138282776
O451 O 0.6960999965667725 0.349700003862381 0.1979999989271164
O452 O 0.6960999965667725 0.349700003862381 0.6980000138282776
O453 O 0.19609999656677246 0.349700003862381 0.3019999861717224
O454 O 0.19609999656677246 0.349700003862381 0.8019999861717224
O455 O 0.6960999965667725 0.349700003862381 0.3019999861717224
O456 O 0.6960999965667725 0.349700003862381 0.8019999861717224
O457 O 0.19609999656677246 0.6503000259399414 0.1979999989271164
O458 O 0.19609999656677246 0.6503000259399414 0.6980000138282776
O459 O 0.6960999965667725 0.6503000259399414 0.1979999989271164
O460 O 0.6960999965667725 0.6503000259399414 0.6980000138282776
O461 O 0.19609999656677246 0.6503000259399414 0.3019999861717224
O462 O 0.19609999656677246 0.6503000259399414 0.8019999861717224
O463 O 0.6960999965667725 0.6503000259399414 0.3019999861717224
O464 O 0.6960999965667725 0.6503000259399414 0.8019999861717224
O465 O 0.20350000262260437 0.2535000145435333 0.25
O466 O 0.20350000262260437 0.2535000145435333 0.75
O467 O 0.703499972820282 0.2535000145435333 0.25
O468 O 0.703499972820282 0.2535000145435333 0.75
O469 O 0.20350000262260437 0.7465000152587891 0.25
O470 O 0.20350000262260437 0.7465000152587891 0.75
O471 O 0.703499972820282 0.7465000152587891 0.25
O472 O 0.703499972820282 0.7465000152587891 0.75
O473 O 0.20685000717639923 0.3727000057697296 0.0
O474 O 0.20685000717639923 0.3727000057697296 0.5
O475 O 0.706849992275238 0.3727000057697296 0.0
O476 O 0.706849992275238 0.3727000057697296 0.5
O477 O 0.20685000717639923 0.6273000240325928 0.0
O478 O 0.20685000717639923 0.6273000240325928 0.5
O479 O 0.706849992275238 0.6273000240325928 0.0
O480 O 0.706849992275238 0.6273000240325928 0.5
O481 O 0.25 0.0 0.18195000290870667
O482 O 0.25 0.0 0.6819499731063843
O483 O 0.75 0.0 0.18195000290870667
O484 O 0.75 0.0 0.6819499731063843
O485 O 0.25 0.0 0.31804999709129333
O486 O 0.25 0.0 0.8180500268936157
O487 O 0.75 0.0 0.31804999709129333
O488 O 0.75 0.0 0.8180500268936157
O489 O 0.25 0.2281000018119812 0.17704999446868896
O490 O 0.25 0.2281000018119812 0.677049994468689
O491 O 0.75 0.2281000018119812 0.17704999446868896
O492 O 0.75 0.2281000018119812 0.677049994468689
O493 O 0.25 0.2281000018119812 0.32295000553131104
O494 O 0.25 0.2281000018119812 0.822950005531311
O495 O 0.75 0.2281000018119812 0.32295000553131104
O496 O 0.75 0.2281000018119812 0.822950005531311
O497 O 0.25 0.38580000400543213 0.25
O498 O 0.25 0.38580000400543213 0.75
O499 O 0.75 0.38580000400543213 0.25
O500 O 0.75 0.38580000400543213 0.75
O501 O 0.25 0.3921999931335449 0.07944999635219574
O502 O 0.25 0.3921999931335449 0.5794500112533569
O503 O 0.75 0.3921999931335449 0.07944999635219574
O504 O 0.75 0.3921999931335449 0.5794500112533569
O505 O 0.25 0.3921999931335449 0.42054998874664307
O506 O 0.25 0.3921999931335449 0.9205499887466431
O507 O 0.75 0.3921999931335449 0.42054998874664307
O508 O 0.75 0.3921999931335449 0.9205499887466431
O509 O 0.25 0.6078000068664551 0.07944999635219574
O510 O 0.25 0.6078000068664551 0.5794500112533569
O511 O 0.75 0.6078000068664551 0.07944999635219574
O512 O 0.75 0.6078000068664551 0.5794500112533569
O513 O 0.25 0.6078000068664551 0.42054998874664307
O514 O 0.25 0.6078000068664551 0.9205499887466431
O515 O 0.75 0.6078000068664551 0.42054998874664307
O516 O 0.75 0.6078000068664551 0.9205499887466431
O517 O 0.25 0.6141999959945679 0.25
O518 O 0.25 0.6141999959945679 0.75
O519 O 0.75 0.6141999959945679 0.25
O520 O 0.75 0.6141999959945679 0.75
O521 O 0.25 0.7720000147819519 0.17704999446868896
O522 O 0.25 0.7720000147819519 0.677049994468689
O523 O 0.75 0.7720000147819519 0.17704999446868896
O524 O 0.75 0.7720000147819519 0.677049994468689
O525 O 0.25 0.7720000147819519 0.32295000553131104
O526 O 0.25 0.7720000147819519 0.822950005531311
O527 O 0.75 0.7720000147819519 0.32295000553131104
O528 O 0.75 0.7720000147819519 0.822950005531311
O529 O 0.29315000772476196 0.3727000057697296 0.0
O530 O 0.29315000772476196 0.3727000057697296 0.5
O531 O 0.793150007724762 0.3727000057697296 0.0
O532 O 0.793150007724762 0.3727000057697296 0.5
O533 O 0.29315000772476196 0.6273000240325928 0.0
O534 O 0.29315000772476196 0.6273000240325928 0.5
O535 O 0.793150007724762 0.6273000240325928 0.0
O536 O 0.793150007724762 0.6273000240325928 0.5
O537 O 0.29649999737739563 0.2535000145435333 0.25
O538 O 0.29649999737739563 0.2535000145435333 0.75
O539 O 0.796500027179718 0.2535000145435333 0.25
O540 O 0.796500027179718 0.2535000145435333 0.75
O541 O 0.29649999737739563 0.7465000152587891 0.25
O542 O 0.29649999737739563 0.7465000152587891 0.75
O543 O 0.796500027179718 0.7465000152587891 0.25
O544 O 0.796500027179718 0.7465000152587891 0.75
O545 O 0.30390000343322754 0.349700003862381 0.1979999989271164
O546 O 0.30390000343322754 0.349700003862381 0.6980000138282776
O547 O 0.8039000034332275 0.349700003862381 0.1979999989271164
O548 O 0.8039000034332275 0.349700003862381 0.6980000138282776
O549 O 0.30390000343322754 0.349700003862381 0.3019999861717224
O550 O 0.30390000343322754 0.349700003862381 0.8019999861717224
O551 O 0.8039000034332275 0.349700003862381 0.3019999861717224
O552 O 0.8039000034332275 0.349700003862381 0.8019999861717224
O553 O 0.30390000343322754 0.6503000259399414 0.1979999989271164
O554 O 0.30390000343322754 0.6503000259399414 0.6980000138282776
O555 O 0.8039000034332275 0.6503000259399414 0.1979999989271164
O556 O 0.8039000034332275 0.6503000259399414 0.6980000138282776
O557 O 0.30390000343322754 0.6503000259399414 0.3019999861717224
O558 O 0.30390000343322754 0.6503000259399414 0.8019999861717224
O559 O 0.8039000034332275 0.6503000259399414 0.3019999861717224
O560 O 0.8039000034332275 0.6503000259399414 0.8019999861717224
O561 O 0.3050000071525574 0.0 0.25
O562 O 0.3050000071525574 0.0 0.75
O563 O 0.8050000071525574 0.0 0.25
O564 O 0.8050000071525574 0.0 0.75
O565 O 0.3057999908924103 0.27619999647140503 0.1509000062942505
O566 O 0.3057999908924103 0.27619999647140503 0.6509000062942505
O567 O 0.8058000206947327 0.27619999647140503 0.1509000062942505
O568 O 0.8058000206947327 0.27619999647140503 0.6509000062942505
O569 O 0.3057999908924103 0.27619999647140503 0.3490999937057495
O570 O 0.3057999908924103 0.27619999647140503 0.8490999937057495
O571 O 0.8058000206947327 0.27619999647140503 0.3490999937057495
O572 O 0.8058000206947327 0.27619999647140503 0.8490999937057495
O573 O 0.3057999908924103 0.723800003528595 0.1509000062942505
O574 O 0.3057999908924103 0.723800003528595 0.6509000062942505
O575 O 0.8058000206947327 0.723800003528595 0.1509000062942505
O576 O 0.8058000206947327 0.723800003528595 0.6509000062942505
O577 O 0.3057999908924103 0.723800003528595 0.3490999937057495
O578 O 0.3057999908924103 0.723800003528595 0.8490999937057495
O579 O 0.8058000206947327 0.723800003528595 0.3490999937057495
O580 O 0.8058000206947327 0.723800003528595 0.8490999937057495
O581 O 0.3089999854564667 0.3456000089645386 0.09475000202655792
O582 O 0.3089999854564667 0.3456000089645386 0.5947499871253967
O583 O 0.8090000152587891 0.3456000089645386 0.09475000202655792
O584 O 0.8090000152587891 0.3456000089645386 0.5947499871253967
O585 O 0.3089999854564667 0.3456000089645386 0.40525001287460327
O586 O 0.3089999854564667 0.3456000089645386 0.9052500128746033
O587 O 0.8090000152587891 0.3456000089645386 0.40525001287460327
O588 O 0.8090000152587891 0.3456000089645386 0.9052500128746033
O589 O 0.3089999854564667 0.6543999910354614 0.09475000202655792
O590 O 0.3089999854564667 0.6543999910354614 0.5947499871253967
O591 O 0.8090000152587891 0.6543999910354614 0.09475000202655792
O592 O 0.8090000152587891 0.6543999910354614 0.5947499871253967
O593 O 0.3089999854564667 0.6543999910354614 0.40525001287460327
O594 O 0.3089999854564667 0.6543999910354614 0.9052500128746033
O595 O 0.8090000152587891 0.6543999910354614 0.40525001287460327
O596 O 0.8090000152587891 0.6543999910354614 0.9052500128746033
O597 O 0.31049999594688416 0.041200000792741776 0.16005000472068787
O598 O 0.31049999594688416 0.041200000792741776 0.6600499749183655
O599 O 0.8105000257492065 0.041200000792741776 0.16005000472068787
O600 O 0.8105000257492065 0.041200000792741776 0.6600499749183655
O601 O 0.31049999594688416 0.041200000792741776 0.33994999527931213
O602 O 0.31049999594688416 0.041200000792741776 0.8399500250816345
O603 O 0.8105000257492065 0.041200000792741776 0.33994999527931213
O604 O 0.8105000257492065 0.041200000792741776 0.8399500250816345
O605 O 0.31049999594688416 0.9588000178337097 0.16005000472068787
O606 O 0.31049999594688416 0.9588000178337097 0.6600499749183655
O607 O 0.8105000257492065 0.9588000178337097 0.16005000472068787
O608 O 0.8105000257492065 0.9588000178337097 0.6600499749183655
O609 O 0.31049999594688416 0.9588000178337097 0.33994999527931213
O610 O 0.31049999594688416 0.9588000178337097 0.8399500250816345
O611 O 0.8105000257492065 0.9588000178337097 0.33994999527931213
O612 O 0.8105000257492065 0.9588000178337097 0.8399500250816345
O613 O 0.31485000252723694 0.4203000068664551 0.25
O614 O 0.31485000252723694 0.4203000068664551 0.75
O615 O 0.8148499727249146 0.4203000068664551 0.25
O616 O 0.8148499727249146 0.4203000068664551 0.75
O617 O 0.31485000252723694 0.5796999931335449 0.25
O618 O 0.31485000252723694 0.5796999931335449 0.75
O619 O 0.8148499727249146 0.5796999931335449 0.25
O620 O 0.8148499727249146 0.5796999931335449 0.75
O621 O 0.3162499964237213 0.42579999566078186 0.07235000282526016
O622 O 0.3162499964237213 0.42579999566078186 0.572350025177002
O623 O 0.8162500262260437 0.42579999566078186 0.07235000282526016
O624 O 0.8162500262260437 0.42579999566078186 0.572350025177002
O625 O 0.3162499964237213 0.42579999566078186 0.427700012922287
O626 O 0.3162499964237213 0.42579999566078186 0.9276999831199646
O627 O 0.8162500262260437 0.42579999566078186 0.427700012922287
O628 O 0.8162500262260437 0.42579999566078186 0.9276999831199646
O629 O 0.3162499964237213 0.5741999745368958 0.07235000282526016
O630 O 0.3162499964237213 0.5741999745368958 0.572350025177002
O631 O 0.8162500262260437 0.5741999745368958 0.07235000282526016
O632 O 0.8162500262260437 0.5741999745368958 0.572350025177002
O633 O 0.3162499964237213 0.5741999745368958 0.427700012922287
O634 O 0.3162499964237213 0.5741999745368958 0.9276999831199646
O635 O 0.8162500262260437 0.5741999745368958 0.427700012922287
O636 O 0.8162500262260437 0.5741999745368958 0.9276999831199646
O637 O 0.3171499967575073 0.19779999554157257 0.17919999361038208
O638 O 0.3171499967575073 0.19779999554157257 0.6791999936103821
O639 O 0.8171499967575073 0.19779999554157257 0.17919999361038208
O640 O 0.8171499967575073 0.19779999554157257 0.6791999936103821
O641 O 0.3171499967575073 0.19779999554157257 0.3208000063896179
O642 O 0.3171499967575073 0.19779999554157257 0.8208000063896179
O643 O 0.8171499967575073 0.19779999554157257 0.3208000063896179
O644 O 0.8171499967575073 0.19779999554157257 0.8208000063896179
O645 O 0.3171499967575073 0.8022000193595886 0.17919999361038208
O646 O 0.3171499967575073 0.8022000193595886 0.6791999936103821
O647 O 0.8171499967575073 0.8022000193595886 0.17919999361038208
O648 O 0.8171499967575073 0.8022000193595886 0.6791999936103821
O649 O 0.3171499967575073 0.8022000193595886 0.3208000063896179
O650 O 0.3171499967575073 0.8022000193595886 0.8208000063896179
O651 O 0.8171499967575073 0.8022000193595886 0.3208000063896179
O652 O 0.8171499967575073 0.8022000193595886 0.8208000063896179
O653 O 0.3341499865055084 0.5 0.25
O654 O 0.3341499865055084 0.5 0.75
O655 O 0.8341500163078308 0.5 0.25
O656 O 0.8341500163078308 0.5 0.75
O657 O 0.335099995136261 0.1185000017285347 0.16885000467300415
O658 O 0.335099995136261 0.1185000017285347 0.6688500046730042
O659 O 0.835099995136261 0.1185000017285347 0.16885000467300415
O660 O 0.835099995136261 0.1185000017285347 0.6688500046730042
O661 O 0.335099995136261 0.1185000017285347 0.33114999532699585
O662 O 0.335099995136261 0.1185000017285347 0.8311499953269958
O663 O 0.835099995136261 0.1185000017285347 0.33114999532699585
O664 O 0.835099995136261 0.1185000017285347 0.8311499953269958
O665 O 0.335099995136261 0.8815000057220459 0.16885000467300415
O666 O 0.335099995136261 0.8815000057220459 0.6688500046730042
O667 O 0.835099995136261 0.8815000057220459 0.16885000467300415
O668 O 0.835099995136261 0.8815000057220459 0.6688500046730042
O669 O 0.335099995136261 0.8815000057220459 0.33114999532699585
O670 O 0.335099995136261 0.8815000057220459 0.8311499953269958
O671 O 0.835099995136261 0.8815000057220459 0.33114999532699585
O672 O 0.835099995136261 0.8815000057220459 0.8311499953269958
O673 O 0.34779998660087585 0.5 0.07644999772310257
O674 O 0.34779998660087585 0.5 0.576449990272522
O675 O 0.8478000164031982 0.5 0.07644999772310257
O676 O 0.8478000164031982 0.5 0.576449990272522
O677 O 0.34779998660087585 0.5 0.423550009727478
O678 O 0.34779998660087585 0.5 0.923550009727478
O679 O 0.8478000164031982 0.5 0.423550009727478
O680 O 0.8478000164031982 0.5 0.923550009727478
O681 O 0.36010000109672546 0.16179999709129333 0.25
O682 O 0.36010000109672546 0.16179999709129333 0.75
O683 O 0.8600999712944031 0.16179999709129333 0.25
O684 O 0.8600999712944031 0.16179999709129333 0.75
O685 O 0.36010000109672546 0.8381999731063843 0.25
O686 O 0.36010000109672546 0.8381999731063843 0.75
O687 O 0.8600999712944031 0.8381999731063843 0.25
O688 O 0.8600999712944031 0.8381999731063843 0.75
O689 O 0.3635999858379364 0.06780000030994415 0.09714999794960022
O690 O 0.3635999858379364 0.06780000030994415 0.5971500277519226
O691 O 0.8636000156402588 0.06780000030994415 0.09714999794960022
O692 O 0.8636000156402588 0.06780000030994415 0.5971500277519226
O693 O 0.3635999858379364 0.06780000030994415 0.4028500020503998
O694 O 0.3635999858379364 0.06780000030994415 0.9028499722480774
O695 O 0.8636000156402588 0.06780000030994415 0.4028500020503998
O696 O 0.8636000156402588 0.06780000030994415 0.9028499722480774
O697 O 0.3635999858379364 0.932200014591217 0.09714999794960022
O698 O 0.3635999858379364 0.932200014591217 0.5971500277519226
O699 O 0.8636000156402588 0.932200014591217 0.09714999794960022
O700 O 0.8636000156402588 0.932200014591217 0.5971500277519226
O701 O 0.3635999858379364 0.932200014591217 0.4028500020503998
O702 O 0.3635999858379364 0.932200014591217 0.9028499722480774
O703 O 0.8636000156402588 0.932200014591217 0.4028500020503998
O704 O 0.8636000156402588 0.932200014591217 0.9028499722480774
O705 O 0.3647499978542328 0.4474000036716461 0.0
O706 O 0.3647499978542328 0.4474000036716461 0.5
O707 O 0.8647500276565552 0.4474000036716461 0.0
O708 O 0.8647500276565552 0.4474000036716461 0.5
O709 O 0.3647499978542328 0.5526000261306763 0.0
O710 O 0.3647499978542328 0.5526000261306763 0.5
O711 O 0.8647500276565552 0.5526000261306763 0.0
O712 O 0.8647500276565552 0.5526000261306763 0.5
O713 O 0.365200012922287 0.3231000006198883 0.15410000085830688
O714 O 0.365200012922287 0.3231000006198883 0.6541000008583069
O715 O 0.8651999831199646 0.3231000006198883 0.15410000085830688
O716 O 0.8651999831199646 0.3231000006198883 0.6541000008583069
O717 O 0.365200012922287 0.3231000006198883 0.3458999991416931
O718 O 0.365200012922287 0.3231000006198883 0.8458999991416931
O719 O 0.8651999831199646 0.3231000006198883 0.3458999991416931
O720 O 0.8651999831199646 0.3231000006198883 0.8458999991416931
O721 O 0.365200012922287 0.6769000291824341 0.15410000085830688
O722 O 0.365200012922287 0.6769000291824341 0.6541000008583069
O723 O 0.8651999831199646 0.6769000291824341 0.15410000085830688
O724 O 0.8651999831199646 0.6769000291824341 0.6541000008583069
O725 O 0.365200012922287 0.6769000291824341 0.3458999991416931
O726 O 0.365200012922287 0.6769000291824341 0.8458999991416931
O727 O 0.8651999831199646 0.6769000291824341 0.3458999991416931
O728 O 0.8651999831199646 0.6769000291824341 0.8458999991416931
O729 O 0.3734999895095825 0.4449999928474426 0.19785000383853912
O730 O 0.3734999895095825 0.4449999928474426 0.6978499889373779
O731 O 0.8734999895095825 0.4449999928474426 0.19785000383853912
O732 O 0.8734999895095825 0.4449999928474426 0.6978499889373779
O733 O 0.3734999895095825 0.4449999928474426 0.30215001106262207
O734 O 0.3734999895095825 0.4449999928474426 0.8021500110626221
O735 O 0.8734999895095825 0.4449999928474426 0.30215001106262207
O736 O 0.8734999895095825 0.4449999928474426 0.8021500110626221
O737 O 0.3734999895095825 0.5550000071525574 0.19785000383853912
O738 O 0.3734999895095825 0.5550000071525574 0.6978499889373779
O739 O 0.8734999895095825 0.5550000071525574 0.19785000383853912
O740 O 0.8734999895095825 0.5550000071525574 0.6978499889373779
O741 O 0.3734999895095825 0.5550000071525574 0.30215001106262207
O742 O 0.3734999895095825 0.5550000071525574 0.8021500110626221
O743 O 0.8734999895095825 0.5550000071525574 0.30215001106262207
O744 O 0.8734999895095825 0.5550000071525574 0.8021500110626221
O745 O 0.3765000104904175 0.054999999701976776 0.19785000383853912
O746 O 0.3765000104904175 0.054999999701976776 0.6978499889373779
O747 O 0.8765000104904175 0.054999999701976776 0.19785000383853912
O748 O 0.8765000104904175 0.054999999701976776 0.6978499889373779
O749 O 0.3765000104904175 0.054999999701976776 0.30215001106262207
O750 O 0.3765000104904175 0.054999999701976776 0.8021500110626221
O751 O 0.8765000104904175 0.054999999701976776 0.30215001106262207
O752 O 0.8765000104904175 0.054999999701976776 0.8021500110626221
O753 O 0.3765000104904175 0.9449999928474426 0.19785000383853912
O754 O 0.3765000104904175 0.9449999928474426 0.6978499889373779
O755 O 0.8765000104904175 0.9449999928474426 0.19785000383853912
O756 O 0.8765000104904175 0.9449999928474426 0.6978499889373779
O757 O 0.3765000104904175 0.9449999928474426 0.30215001106262207
O758 O 0.3765000104904175 0.9449999928474426 0.8021500110626221
O759 O 0.8765000104904175 0.9449999928474426 0.30215001106262207
O760 O 0.8765000104904175 0.9449999928474426 0.8021500110626221
O761 O 0.384799987077713 0.1768999993801117 0.15410000085830688
O762 O 0.384799987077713 0.1768999993801117 0.6541000008583069
O763 O 0.8848000168800354 0.1768999993801117 0.15410000085830688
O764 O 0.8848000168800354 0.1768999993801117 0.6541000008583069
O765 O 0.384799987077713 0.1768999993801117 0.3458999991416931
O766 O 0.384799987077713 0.1768999993801117 0.8458999991416931
O767 O 0.8848000168800354 0.1768999993801117 0.3458999991416931
O768 O 0.8848000168800354 0.1768999993801117 0.8458999991416931
O769 O 0.384799987077713 0.8230999708175659 0.15410000085830688
O770 O 0.384799987077713 0.8230999708175659 0.6541000008583069
O771 O 0.8848000168800354 0.8230999708175659 0.15410000085830688
O772 O 0.8848000168800354 0.8230999708175659 0.6541000008583069
O773 O 0.384799987077713 0.8230999708175659 0.3458999991416931
O774 O 0.384799987077713 0.8230999708175659 0.8458999991416931
O775 O 0.8848000168800354 0.8230999708175659 0.3458999991416931
O776 O 0.8848000168800354 0.8230999708175659 0.8458999991416931
O777 O 0.3852500021457672 0.05260000005364418 0.0
O778 O 0.3852500021457672 0.05260000005364418 0.5
O779 O 0.8852499723434448 0.05260000005364418 0.0
O780 O 0.8852499723434448 0.05260000005364418 0.5
O781 O 0.3852500021457672 0.9473999738693237 0.0
O782 O 0.3852500021457672 0.9473999738693237 0.5
O783 O 0.8852499723434448 0.9473999738693237 0.0
O784 O 0.8852499723434448 0.9473999738693237 0.5
O785 O 0.3864000141620636 0.43220001459121704 0.09714999794960022
O786 O 0.3864000141620636 0.43220001459121704 0.5971500277519226
O787 O 0.8863999843597412 0.43220001459121704 0.09714999794960022
O788 O 0.8863999843597412 0.43220001459121704 0.5971500277519226
O789 O 0.3864000141620636 0.43220001459121704 0.4028500020503998
O790 O 0.3864000141620636 0.43220001459121704 0.9028499722480774
O791 O 0.8863999843597412 0.43220001459121704 0.4028500020503998
O792 O 0.8863999843597412 0.43220001459121704 0.9028499722480774
O793 O 0.3864000141620636 0.567799985408783 0.09714999794960022
O794 O 0.3864000141620636 0.567799985408783 0.5971500277519226
O795 O 0.8863999843597412 0.567799985408783 0.09714999794960022
O796 O 0.8863999843597412 0.567799985408783 0.5971500277519226
O797 O 0.3864000141620636 0.567799985408783 0.4028500020503998
O798 O 0.3864000141620636 0.567799985408783 0.9028499722480774
O799 O 0.8863999843597412 0.567799985408783 0.4028500020503998
O800 O 0.8863999843597412 0.567799985408783 0.9028499722480774
O801 O 0.38989999890327454 0.33820000290870667 0.25
O802 O 0.38989999890327454 0.33820000290870667 0.75
O803 O 0.8899000287055969 0.33820000290870667 0.25
O804 O 0.8899000287055969 0.33820000290870667 0.75
O805 O 0.38989999890327454 0.6618000268936157 0.25
O806 O 0.38989999890327454 0.6618000268936157 0.75
O807 O 0.8899000287055969 0.6618000268936157 0.25
O808 O 0.8899000287055969 0.6618000268936157 0.75
O809 O 0.40220001339912415 0.0 0.07644999772310257
O810 O 0.40220001339912415 0.0 0.576449990272522
O811 O 0.9021999835968018 0.0 0.07644999772310257
O812 O 0.9021999835968018 0.0 0.576449990272522
O813 O 0.40220001339912415 0.0 0.423550009727478
O814 O 0.40220001339912415 0.0 0.923550009727478
O815 O 0.9021999835968018 0.0 0.423550009727478
O816 O 0.9021999835968018 0.0 0.923550009727478
O817 O 0.414900004863739 0.3815000057220459 0.16885000467300415
O818 O 0.414900004863739 0.3815000057220459 0.6688500046730042
O819 O 0.914900004863739 0.3815000057220459 0.16885000467300415
O820 O 0.914900004863739 0.3815000057220459 0.6688500046730042
O821 O 0.414900004863739 0.3815000057220459 0.33114999532699585
O822 O 0.414900004863739 0.3815000057220459 0.8311499953269958
O823 O 0.914900004863739 0.3815000057220459 0.33114999532699585
O824 O 0.914900004863739 0.3815000057220459 0.8311499953269958
O825 O 0.414900004863739 0.6184999942779541 0.16885000467300415
O826 O 0.414900004863739 0.6184999942779541 0.6688500046730042
O827 O 0.914900004863739 0.6184999942779541 0.16885000467300415
O828 O 0.914900004863739 0.6184999942779541 0.6688500046730042
O829 O 0.414900004863739 0.6184999942779541 0.33114999532699585
O830 O 0.414900004863739 0.6184999942779541 0.8311499953269958
O831 O 0.914900004863739 0.6184999942779541 0.33114999532699585
O832 O 0.914900004863739 0.6184999942779541 0.8311499953269958
O833 O 0.4158500134944916 0.0 0.25
O834 O 0.4158500134944916 0.0 0.75
O835 O 0.9158499836921692 0.0 0.25
O836 O 0.9158499836921692 0.0 0.75
O837 O 0.4328500032424927 0.30219998955726624 0.17919999361038208
O838 O 0.4328500032424927 0.30219998955726624 0.6791999936103821
O839 O 0.9328500032424927 0.30219998955726624 0.17919999361038208
O840 O 0.9328500032424927 0.30219998955726624 0.6791999936103821
O841 O 0.4328500032424927 0.30219998955726624 0.3208000063896179
O842 O 0.4328500032424927 0.30219998955726624 0.8208000063896179
O843 O 0.9328500032424927 0.30219998955726624 0.3208000063896179
O844 O 0.9328500032424927 0.30219998955726624 0.8208000063896179
O845 O 0.4328500032424927 0.6977999806404114 0.17919999361038208
O846 O 0.4328500032424927 0.6977999806404114 0.6791999936103821
O847 O 0.9328500032424927 0.6977999806404114 0.17919999361038208
O848 O 0.9328500032424927 0.6977999806404114 0.6791999936103821
O849 O 0.4328500032424927 0.6977999806404114 0.3208000063896179
O850 O 0.4328500032424927 0.6977999806404114 0.8208000063896179
O851 O 0.9328500032424927 0.6977999806404114 0.3208000063896179
O852 O 0.9328500032424927 0.6977999806404114 0.8208000063896179
O853 O 0.4337500035762787 0.07419999688863754 0.07235000282526016
O854 O 0.4337500035762787 0.07419999688863754 0.572350025177002
O855 O 0.9337499737739563 0.07419999688863754 0.07235000282526016
O856 O 0.9337499737739563 0.07419999688863754 0.572350025177002
O857 O 0.4337500035762787 0.07419999688863754 0.427700012922287
O858 O 0.4337500035762787 0.07419999688863754 0.9276999831199646
O859 O 0.9337499737739563 0.07419999688863754 0.427700012922287
O860 O 0.9337499737739563 0.07419999688863754 0.9276999831199646
O861 O 0.4337500035762787 0.9258000254631042 0.07235000282526016
O862 O 0.4337500035762787 0.9258000254631042 0.572350025177002
O863 O 0.9337499737739563 0.9258000254631042 0.07235000282526016
O864 O 0.9337499737739563 0.9258000254631042 0.572350025177002
O865 O 0.4337500035762787 0.9258000254631042 0.427700012922287
O866 O 0.4337500035762787 0.9258000254631042 0.9276999831199646
O867 O 0.9337499737739563 0.9258000254631042 0.427700012922287
O868 O 0.9337499737739563 0.9258000254631042 0.9276999831199646
O869 O 0.43514999747276306 0.07970000058412552 0.25
O870 O 0.43514999747276306 0.07970000058412552 0.75
O871 O 0.9351500272750854 0.07970000058412552 0.25
O872 O 0.9351500272750854 0.07970000058412552 0.75
O873 O 0.43514999747276306 0.9203000068664551 0.25
O874 O 0.43514999747276306 0.9203000068664551 0.75
O875 O 0.9351500272750854 0.9203000068664551 0.25
O876 O 0.9351500272750854 0.9203000068664551 0.75
O877 O 0.43950000405311584 0.45879998803138733 0.16005000472068787
O878 O 0.43950000405311584 0.45879998803138733 0.6600499749183655
O879 O 0.9394999742507935 0.45879998803138733 0.16005000472068787
O880 O 0.9394999742507935 0.45879998803138733 0.6600499749183655
O881 O 0.43950000405311584 0.45879998803138733 0.33994999527931213
O882 O 0.43950000405311584 0.45879998803138733 0.8399500250816345
O883 O 0.9394999742507935 0.45879998803138733 0.33994999527931213
O884 O 0.9394999742507935 0.45879998803138733 0.8399500250816345
O885 O 0.43950000405311584 0.5411999821662903 0.16005000472068787
O886 O 0.43950000405311584 0.5411999821662903 0.6600499749183655
O887 O 0.9394999742507935 0.5411999821662903 0.16005000472068787
O888 O 0.9394999742507935 0.5411999821662903 0.6600499749183655
O889 O 0.43950000405311584 0.5411999821662903 0.33994999527931213
O890 O 0.43950000405311584 0.5411999821662903 0.8399500250816345
O891 O 0.9394999742507935 0.5411999821662903 0.33994999527931213
O892 O 0.9394999742507935 0.5411999821662903 0.8399500250816345
O893 O 0.4410000145435333 0.15440000593662262 0.09475000202655792
O894 O 0.4410000145435333 0.15440000593662262 0.5947499871253967
O895 O 0.9409999847412109 0.15440000593662262 0.09475000202655792
O896 O 0.9409999847412109 0.15440000593662262 0.5947499871253967
O897 O 0.4410000145435333 0.15440000593662262 0.40525001287460327
O898 O 0.4410000145435333 0.15440000593662262 0.9052500128746033
O899 O 0.9409999847412109 0.15440000593662262 0.40525001287460327
O900 O 0.9409999847412109 0.15440000593662262 0.9052500128746033
O901 O 0.4410000145435333 0.8456000089645386 0.09475000202655792
O902 O 0.4410000145435333 0.8456000089645386 0.5947499871253967
O903 O 0.9409999847412109 0.8456000089645386 0.09475000202655792
O904 O 0.9409999847412109 0.8456000089645386 0.5947499871253967
O905 O 0.4410000145435333 0.8456000089645386 0.40525001287460327
O906 O 0.4410000145435333 0.8456000089645386 0.9052500128746033
O907 O 0.9409999847412109 0.8456000089645386 0.40525001287460327
O908 O 0.9409999847412109 0.8456000089645386 0.9052500128746033
O909 O 0.4442000091075897 0.22380000352859497 0.1509000062942505
O910 O 0.4442000091075897 0.22380000352859497 0.6509000062942505
O911 O 0.9441999793052673 0.22380000352859497 0.1509000062942505
O912 O 0.9441999793052673 0.22380000352859497 0.6509000062942505
O913 O 0.4442000091075897 0.22380000352859497 0.3490999937057495
O914 O 0.4442000091075897 0.22380000352859497 0.8490999937057495
O915 O 0.9441999793052673 0.22380000352859497 0.3490999937057495
O916 O 0.9441999793052673 0.22380000352859497 0.8490999937057495
O917 O 0.4442000091075897 0.776199996471405 0.1509000062942505
O918 O 0.4442000091075897 0.776199996471405 0.6509000062942505
O919 O 0.9441999793052673 0.776199996471405 0.1509000062942505
O920 O 0.9441999793052673 0.776199996471405 0.6509000062942505
O921 O 0.4442000091075897 0.776199996471405 0.3490999937057495
O922 O 0.4442000091075897 0.776199996471405 0.8490999937057495
O923 O 0.9441999793052673 0.776199996471405 0.3490999937057495
O924 O 0.9441999793052673 0.776199996471405 0.8490999937057495
O925 O 0.4449999928474426 0.5 0.25
O926 O 0.4449999928474426 0.5 0.75
O927 O 0.9449999928474426 0.5 0.25
O928 O 0.9449999928474426 0.5 0.75
O929 O 0.44609999656677246 0.15029999613761902 0.1979999989271164
O930 O 0.44609999656677246 0.15029999613761902 0.6980000138282776
O931 O 0.9460999965667725 0.15029999613761902 0.1979999989271164
O932 O 0.9460999965667725 0.15029999613761902 0.6980000138282776
O933 O 0.44609999656677246 0.15029999613761902 0.3019999861717224
O934 O 0.44609999656677246 0.15029999613761902 0.8019999861717224
O935 O 0.9460999965667725 0.15029999613761902 0.3019999861717224
O936 O 0.9460999965667725 0.15029999613761902 0.8019999861717224
O937 O 0.44609999656677246 0.8496999740600586 0.1979999989271164
O938 O 0.44609999656677246 0.8496999740600586 0.6980000138282776
O939 O 0.9460999965667725 0.8496999740600586 0.1979999989271164
O940 O 0.9460999965667725 0.8496999740600586 0.6980000138282776
O941 O 0.44609999656677246 0.8496999740600586 0.3019999861717224
O942 O 0.44609999656677246 0.8496999740600586 0.8019999861717224
O943 O 0.9460999965667725 0.8496999740600586 0.3019999861717224
O944 O 0.9460999965667725 0.8496999740600586 0.8019999861717224
O945 O 0.45350000262260437 0.24650000035762787 0.25
O946 O 0.45350000262260437 0.24650000035762787 0.75
O947 O 0.953499972820282 0.24650000035762787 0.25
O948 O 0.953499972820282 0.24650000035762787 0.75
O949 O 0.45350000262260437 0.7534999847412109 0.25
O950 O 0.45350000262260437 0.7534999847412109 0.75
O951 O 0.953499972820282 0.7534999847412109 0.25
O952 O 0.953499972820282 0.7534999847412109 0.75
O953 O 0.45684999227523804 0.12729999423027039 0.0
O954 O 0.45684999227523804 0.12729999423027039 0.5
O955 O 0.956849992275238 0.12729999423027039 0.0
O956 O 0.956849992275238 0.12729999423027039 0.5
O957 O 0.45684999227523804 0.8726999759674072 0.0
O958 O 0.45684999227523804 0.8726999759674072 0.5
O959 O 0.956849992275238 0.8726999759674072 0.0
O960 O 0.956849992275238 0.8726999759674072 0.5
O961 O 0.5 0.2720000147819519 0.17704999446868896
O962 O 0.5 0.2720000147819519 0.677049994468689
O963 O 1.0 0.2720000147819519 0.17704999446868896
O964 O 1.0 0.2720000147819519 0.677049994468689
O965 O 0.5 0.2720000147819519 0.32295000553131104
O966 O 0.5 0.2720000147819519 0.822950005531311
O967 O 1.0 0.2720000147819519 0.32295000553131104
O968 O 1.0 0.2720000147819519 0.822950005531311
O969 O 0.5 0.5 0.18195000290870667
O970 O 0.5 0.5 0.6819499731063843
O971 O 1.0 0.5 0.18195000290870667
O972 O 1.0 0.5 0.6819499731063843
O973 O 0.5 0.5 0.31804999709129333
O974 O 0.5 0.5 0.8180500268936157
O975 O 1.0 0.5 0.31804999709129333
O976 O 1.0 0.5 0.8180500268936157
O977 O 0.5 0.7279999852180481 0.17704999446868896
O978 O 0.5 0.7279999852180481 0.677049994468689
O979 O 1.0 0.7279999852180481 0.17704999446868896
O980 O 1.0 0.7279999852180481 0.677049994468689
O981 O 0.5 0.7279999852180481 0.32295000553131104
O982 O 0.5 0.7279999852180481 0.822950005531311
O983 O 1.0 0.7279999852180481 0.32295000553131104
O984 O 1.0 0.7279999852180481 0.822950005531311
Si985 Si 0.041999999433755875 0.11559999734163284 0.061900001019239426
Si986 Si 0.041999999433755875 0.11559999734163284 0.5619000196456909
Si987 Si 0.5419999957084656 0.11559999734163284 0.061900001019239426
Si988 Si 0.5419999957084656 0.11559999734163284 0.5619000196456909
Si989 Si 0.041999999433755875 0.11559999734163284 0.43810001015663147
Si990 Si 0.041999999433755875 0.11559999734163284 0.9380999803543091
Si991 Si 0.5419999957084656 0.11559999734163284 0.43810001015663147
Si992 Si 0.5419999957084656 0.11559999734163284 0.9380999803543091
Si993 Si 0.041999999433755875 0.8844000101089478 0.061900001019239426
Si994 Si 0.041999999433755875 0.8844000101089478 0.5619000196456909
Si995 Si 0.5419999957084656 0.8844000101089478 0.061900001019239426
Si996 Si 0.5419999957084656 0.8844000101089478 0.5619000196456909
Si997 Si 0.041999999433755875 0.8844000101089478 0.43810001015663147
Si998 Si 0.041999999433755875 0.8844000101089478 0.9380999803543091
Si999 Si 0.5419999957084656 0.8844000101089478 0.43810001015663147
Si1000 Si 0.5419999957084656 0.8844000101089478 0.9380999803543091
Si1001 Si 0.042399998754262924 0.26109999418258667 0.18930000066757202
Si1002 Si 0.042399998754262924 0.26109999418258667 0.689300000667572
Si1003 Si 0.5424000024795532 0.26109999418258667 0.18930000066757202
Si1004 Si 0.5424000024795532 0.26109999418258667 0.689300000667572
Si1005 Si 0.042399998754262924 0.26109999418258667 0.310699999332428
Si1006 Si 0.042399998754262924 0.26109999418258667 0.810699999332428
Si1007 Si 0.5424000024795532 0.26109999418258667 0.310699999332428
Si1008 Si 0.5424000024795532 0.26109999418258667 0.810699999332428
Si1009 Si 0.042399998754262924 0.7389000058174133 0.18930000066757202
Si1010 Si 0.042399998754262924 0.7389000058174133 0.689300000667572
Si1011 Si 0.5424000024795532 0.7389000058174133 0.18930000066757202
Si1012 Si 0.5424000024795532 0.7389000058174133 0.689300000667572
Si1013 Si 0.042399998754262924 0.7389000058174133 0.310699999332428
Si1014 Si 0.042399998754262924 0.7389000058174133 0.810699999332428
Si1015 Si 0.5424000024795532 0.7389000058174133 0.310699999332428
Si1016 Si 0.5424000024795532 0.7389000058174133 0.810699999332428
Si1017 Si 0.04340000078082085 0.12389999628067017 0.25
Si1018 Si 0.04340000078082085 0.12389999628067017 0.75
Si1019 Si 0.54339998960495 0.12389999628067017 0.25
Si1020 Si 0.54339998960495 0.12389999628067017 0.75
Si1021 Si 0.04340000078082085 0.8761000037193298 0.25
Si1022 Si 0.04340000078082085 0.8761000037193298 0.75
Si1023 Si 0.54339998960495 0.8761000037193298 0.25
Si1024 Si 0.54339998960495 0.8761000037193298 0.75
Si1025 Si 0.043949998915195465 0.5 0.188400000333786
Si1026 Si 0.043949998915195465 0.5 0.6883999705314636
Si1027 Si 0.5439500212669373 0.5 0.188400000333786
Si1028 Si 0.5439500212669373 0.5 0.6883999705314636
Si1029 Si 0.043949998915195465 0.5 0.311599999666214
Si1030 Si 0.043949998915195465 0.5 0.8116000294685364
Si1031 Si 0.5439500212669373 0.5 0.311599999666214
Si1032 Si 0.5439500212669373 0.5 0.8116000294685364
Si1033 Si 0.0710500031709671 0.17640000581741333 0.149399995803833
Si1034 Si 0.0710500031709671 0.17640000581741333 0.649399995803833
Si1035 Si 0.5710499882698059 0.17640000581741333 0.149399995803833
Si1036 Si 0.5710499882698059 0.17640000581741333 0.649399995803833
Si1037 Si 0.0710500031709671 0.17640000581741333 0.350600004196167
Si1038 Si 0.0710500031709671 0.17640000581741333 0.850600004196167
Si1039 Si 0.5710499882698059 0.17640000581741333 0.350600004196167
Si1040 Si 0.5710499882698059 0.17640000581741333 0.850600004196167
Si1041 Si 0.0710500031709671 0.8235999941825867 0.149399995803833
Si1042 Si 0.0710500031709671 0.8235999941825867 0.649399995803833
Si1043 Si 0.5710499882698059 0.8235999941825867 0.149399995803833
Si1044 Si 0.5710499882698059 0.8235999941825867 0.649399995803833
Si1045 Si 0.0710500031709671 0.8235999941825867 0.350600004196167
Si1046 Si 0.0710500031709671 0.8235999941825867 0.850600004196167
Si1047 Si 0.5710499882698059 0.8235999941825867 0.350600004196167
Si1048 Si 0.5710499882698059 0.8235999941825867 0.850600004196167
Si1049 Si 0.09634999930858612 0.4293000102043152 0.15569999814033508
Si1050 Si 0.09634999930858612 0.4293000102043152 0.6557000279426575
Si1051 Si 0.5963500142097473 0.4293000102043152 0.15569999814033508
Si1052 Si 0.5963500142097473 0.4293000102043152 0.6557000279426575
Si1053 Si 0.09634999930858612 0.4293000102043152 0.3443000018596649
Si1054 Si 0.09634999930858612 0.4293000102043152 0.8442999720573425
Si1055 Si 0.5963500142097473 0.4293000102043152 0.3443000018596649
Si1056 Si 0.5963500142097473 0.4293000102043152 0.8442999720573425
Si1057 Si 0.09634999930858612 0.5706999897956848 0.15569999814033508
Si1058 Si 0.09634999930858612 0.5706999897956848 0.6557000279426575
Si1059 Si 0.5963500142097473 0.5706999897956848 0.15569999814033508
Si1060 Si 0.5963500142097473 0.5706999897956848 0.6557000279426575
Si1061 Si 0.09634999930858612 0.5706999897956848 0.3443000018596649
Si1062 Si 0.09634999930858612 0.5706999897956848 0.8442999720573425
Si1063 Si 0.5963500142097473 0.5706999897956848 0.3443000018596649
Si1064 Si 0.5963500142097473 0.5706999897956848 0.8442999720573425
Si1065 Si 0.09905000030994415 0.047600001096725464 0.25
Si1066 Si 0.09905000030994415 0.047600001096725464 0.75
Si1067 Si 0.599049985408783 0.047600001096725464 0.25
Si1068 Si 0.599049985408783 0.047600001096725464 0.75
Si1069 Si 0.09905000030994415 0.9524000287055969 0.25
Si1070 Si 0.09905000030994415 0.9524000287055969 0.75
Si1071 Si 0.599049985408783 0.9524000287055969 0.25
Si1072 Si 0.599049985408783 0.9524000287055969 0.75
Si1073 Si 0.09929999709129333 0.3361999988555908 0.18835000693798065
Si1074 Si 0.09929999709129333 0.3361999988555908 0.6883500218391418
Si1075 Si 0.5993000268936157 0.3361999988555908 0.18835000693798065
Si1076 Si 0.5993000268936157 0.3361999988555908 0.6883500218391418
Si1077 Si 0.09929999709129333 0.3361999988555908 0.31165000796318054
Si1078 Si 0.09929999709129333 0.3361999988555908 0.8116499781608582
Si1079 Si 0.5993000268936157 0.3361999988555908 0.31165000796318054
Si1080 Si 0.5993000268936157 0.3361999988555908 0.8116499781608582
Si1081 Si 0.09929999709129333 0.6638000011444092 0.18835000693798065
Si1082 Si 0.09929999709129333 0.6638000011444092 0.6883500218391418
Si1083 Si 0.5993000268936157 0.6638000011444092 0.18835000693798065
Si1084 Si 0.5993000268936157 0.6638000011444092 0.6883500218391418
Si1085 Si 0.09929999709129333 0.6638000011444092 0.31165000796318054
Si1086 Si 0.09929999709129333 0.6638000011444092 0.8116499781608582
Si1087 Si 0.5993000268936157 0.6638000011444092 0.31165000796318054
Si1088 Si 0.5993000268936157 0.6638000011444092 0.8116499781608582
Si1089 Si 0.10374999791383743 0.048700001090765 0.06145000085234642
Si1090 Si 0.10374999791383743 0.048700001090765 0.5614500045776367
Si1091 Si 0.6037499904632568 0.048700001090765 0.06145000085234642
Si1092 Si 0.6037499904632568 0.048700001090765 0.5614500045776367
Si1093 Si 0.10374999791383743 0.048700001090765 0.4385499954223633
Si1094 Si 0.10374999791383743 0.048700001090765 0.9385499954223633
Si1095 Si 0.6037499904632568 0.048700001090765 0.4385499954223633
Si1096 Si 0.6037499904632568 0.048700001090765 0.9385499954223633
Si1097 Si 0.10374999791383743 0.9513000249862671 0.06145000085234642
Si1098 Si 0.10374999791383743 0.9513000249862671 0.5614500045776367
Si1099 Si 0.6037499904632568 0.9513000249862671 0.06145000085234642
Si1100 Si 0.6037499904632568 0.9513000249862671 0.5614500045776367
Si1101 Si 0.10374999791383743 0.9513000249862671 0.4385499954223633
Si1102 Si 0.10374999791383743 0.9513000249862671 0.9385499954223633
Si1103 Si 0.6037499904632568 0.9513000249862671 0.4385499954223633
Si1104 Si 0.6037499904632568 0.9513000249862671 0.9385499954223633
Si1105 Si 0.14624999463558197 0.4512999951839447 0.06145000085234642
Si1106 Si 0.14624999463558197 0.4512999951839447 0.5614500045776367
Si1107 Si 0.6462500095367432 0.4512999951839447 0.06145000085234642
Si1108 Si 0.6462500095367432 0.4512999951839447 0.5614500045776367
Si1109 Si 0.14624999463558197 0.4512999951839447 0.4385499954223633
Si1110 Si 0.14624999463558197 0.4512999951839447 0.9385499954223633
Si1111 Si 0.6462500095367432 0.4512999951839447 0.4385499954223633
Si1112 Si 0.6462500095367432 0.4512999951839447 0.9385499954223633
Si1113 Si 0.14624999463558197 0.5486999750137329 0.06145000085234642
Si1114 Si 0.14624999463558197 0.5486999750137329 0.5614500045776367
Si1115 Si 0.6462500095367432 0.5486999750137329 0.06145000085234642
Si1116 Si 0.6462500095367432 0.5486999750137329 0.5614500045776367
Si1117 Si 0.14624999463558197 0.5486999750137329 0.4385499954223633
Si1118 Si 0.14624999463558197 0.5486999750137329 0.9385499954223633
Si1119 Si 0.6462500095367432 0.5486999750137329 0.4385499954223633
Si1120 Si 0.6462500095367432 0.5486999750137329 0.9385499954223633
Si1121 Si 0.15070000290870667 0.16380000114440918 0.18835000693798065
Si1122 Si 0.15070000290870667 0.16380000114440918 0.6883500218391418
Si1123 Si 0.6506999731063843 0.16380000114440918 0.18835000693798065
Si1124 Si 0.6506999731063843 0.16380000114440918 0.6883500218391418
Si1125 Si 0.15070000290870667 0.16380000114440918 0.31165000796318054
Si1126 Si 0.15070000290870667 0.16380000114440918 0.8116499781608582
Si1127 Si 0.6506999731063843 0.16380000114440918 0.31165000796318054
Si1128 Si 0.6506999731063843 0.16380000114440918 0.8116499781608582
Si1129 Si 0.15070000290870667 0.8361999988555908 0.18835000693798065
Si1130 Si 0.15070000290870667 0.8361999988555908 0.6883500218391418
Si1131 Si 0.6506999731063843 0.8361999988555908 0.18835000693798065
Si1132 Si 0.6506999731063843 0.8361999988555908 0.6883500218391418
Si1133 Si 0.15070000290870667 0.8361999988555908 0.31165000796318054
Si1134 Si 0.15070000290870667 0.8361999988555908 0.8116499781608582
Si1135 Si 0.6506999731063843 0.8361999988555908 0.31165000796318054
Si1136 Si 0.6506999731063843 0.8361999988555908 0.8116499781608582
Si1137 Si 0.15094999969005585 0.45239999890327454 0.25
Si1138 Si 0.15094999969005585 0.45239999890327454 0.75
Si1139 Si 0.650950014591217 0.45239999890327454 0.25
Si1140 Si 0.650950014591217 0.45239999890327454 0.75
Si1141 Si 0.15094999969005585 0.5475999712944031 0.25
Si1142 Si 0.15094999969005585 0.5475999712944031 0.75
Si1143 Si 0.650950014591217 0.5475999712944031 0.25
Si1144 Si 0.650950014591217 0.5475999712944031 0.75
Si1145 Si 0.15365000069141388 0.07069999724626541 0.15569999814033508
Si1146 Si 0.15365000069141388 0.07069999724626541 0.6557000279426575
Si1147 Si 0.6536499857902527 0.07069999724626541 0.15569999814033508
Si1148 Si 0.6536499857902527 0.07069999724626541 0.6557000279426575
Si1149 Si 0.15365000069141388 0.07069999724626541 0.3443000018596649
Si1150 Si 0.15365000069141388 0.07069999724626541 0.8442999720573425
Si1151 Si 0.6536499857902527 0.07069999724626541 0.3443000018596649
Si1152 Si 0.6536499857902527 0.07069999724626541 0.8442999720573425
Si1153 Si 0.15365000069141388 0.9293000102043152 0.15569999814033508
Si1154 Si 0.15365000069141388 0.9293000102043152 0.6557000279426575
Si1155 Si 0.6536499857902527 0.9293000102043152 0.15569999814033508
Si1156 Si 0.6536499857902527 0.9293000102043152 0.6557000279426575
Si1157 Si 0.15365000069141388 0.9293000102043152 0.3443000018596649
Si1158 Si 0.15365000069141388 0.9293000102043152 0.8442999720573425
Si1159 Si 0.6536499857902527 0.9293000102043152 0.3443000018596649
Si1160 Si 0.6536499857902527 0.9293000102043152 0.8442999720573425
Si1161 Si 0.1789499968290329 0.32359999418258667 0.149399995803833
Si1162 Si 0.1789499968290329 0.32359999418258667 0.649399995803833
Si1163 Si 0.6789500117301941 0.32359999418258667 0.149399995803833
Si1164 Si 0.6789500117301941 0.32359999418258667 0.649399995803833
Si1165 Si 0.1789499968290329 0.32359999418258667 0.350600004196167
Si1166 Si 0.1789499968290329 0.32359999418258667 0.850600004196167
Si1167 Si 0.6789500117301941 0.32359999418258667 0.350600004196167
Si1168 Si 0.6789500117301941 0.32359999418258667 0.850600004196167
Si1169 Si 0.1789499968290329 0.6764000058174133 0.149399995803833
Si1170 Si 0.1789499968290329 0.6764000058174133 0.649399995803833
Si1171 Si 0.6789500117301941 0.6764000058174133 0.149399995803833
Si1172 Si 0.6789500117301941 0.6764000058174133 0.649399995803833
Si1173 Si 0.1789499968290329 0.6764000058174133 0.350600004196167
Si1174 Si 0.1789499968290329 0.6764000058174133 0.850600004196167
Si1175 Si 0.6789500117301941 0.6764000058174133 0.350600004196167
Si1176 Si 0.6789500117301941 0.6764000058174133 0.850600004196167
Si1177 Si 0.20604999363422394 0.0 0.188400000333786
Si1178 Si 0.20604999363422394 0.0 0.6883999705314636
Si1179 Si 0.7060499787330627 0.0 0.188400000333786
Si1180 Si 0.7060499787330627 0.0 0.6883999705314636
Si1181 Si 0.20604999363422394 0.0 0.311599999666214
Si1182 Si 0.20604999363422394 0.0 0.8116000294685364
Si1183 Si 0.7060499787330627 0.0 0.311599999666214
Si1184 Si 0.7060499787330627 0.0 0.8116000294685364
Si1185 Si 0.20659999549388885 0.37610000371932983 0.25
Si1186 Si 0.20659999549388885 0.37610000371932983 0.75
Si1187 Si 0.70660001039505 0.37610000371932983 0.25
Si1188 Si 0.70660001039505 0.37610000371932983 0.75
Si1189 Si 0.20659999549388885 0.6238999962806702 0.25
Si1190 Si 0.20659999549388885 0.6238999962806702 0.75
Si1191 Si 0.70660001039505 0.6238999962806702 0.25
Si1192 Si 0.70660001039505 0.6238999962806702 0.75
Si1193 Si 0.20759999752044678 0.23890000581741333 0.18930000066757202
Si1194 Si 0.20759999752044678 0.23890000581741333 0.689300000667572
Si1195 Si 0.7075999975204468 0.23890000581741333 0.18930000066757202
Si1196 Si 0.7075999975204468 0.23890000581741333 0.689300000667572
Si1197 Si 0.20759999752044678 0.23890000581741333 0.310699999332428
Si1198 Si 0.20759999752044678 0.23890000581741333 0.810699999332428
Si1199 Si 0.7075999975204468 0.23890000581741333 0.310699999332428
Si1200 Si 0.7075999975204468 0.23890000581741333 0.810699999332428
Si1201 Si 0.20759999752044678 0.7610999941825867 0.18930000066757202
Si1202 Si 0.20759999752044678 0.7610999941825867 0.689300000667572
Si1203 Si 0.7075999975204468 0.7610999941825867 0.18930000066757202
Si1204 Si 0.7075999975204468 0.7610999941825867 0.689300000667572
Si1205 Si 0.20759999752044678 0.7610999941825867 0.310699999332428
Si1206 Si 0.20759999752044678 0.7610999941825867 0.810699999332428
Si1207 Si 0.7075999975204468 0.7610999941825867 0.310699999332428
Si1208 Si 0.7075999975204468 0.7610999941825867 0.810699999332428
Si1209 Si 0.20800000429153442 0.38440001010894775 0.061900001019239426
Si1210 Si 0.20800000429153442 0.38440001010894775 0.5619000196456909
Si1211 Si 0.7080000042915344 0.38440001010894775 0.061900001019239426
Si1212 Si 0.7080000042915344 0.38440001010894775 0.5619000196456909
Si1213 Si 0.20800000429153442 0.38440001010894775 0.43810001015663147
Si1214 Si 0.20800000429153442 0.38440001010894775 0.9380999803543091
Si1215 Si 0.7080000042915344 0.38440001010894775 0.43810001015663147
Si1216 Si 0.7080000042915344 0.38440001010894775 0.9380999803543091
Si1217 Si 0.20800000429153442 0.6155999898910522 0.061900001019239426
Si1218 Si 0.20800000429153442 0.6155999898910522 0.5619000196456909
Si1219 Si 0.7080000042915344 0.6155999898910522 0.061900001019239426
Si1220 Si 0.7080000042915344 0.6155999898910522 0.5619000196456909
Si1221 Si 0.20800000429153442 0.6155999898910522 0.43810001015663147
Si1222 Si 0.20800000429153442 0.6155999898910522 0.9380999803543091
Si1223 Si 0.7080000042915344 0.6155999898910522 0.43810001015663147
Si1224 Si 0.7080000042915344 0.6155999898910522 0.9380999803543091
Si1225 Si 0.2919999957084656 0.38440001010894775 0.061900001019239426
Si1226 Si 0.2919999957084656 0.38440001010894775 0.5619000196456909
Si1227 Si 0.7919999957084656 0.38440001010894775 0.061900001019239426
Si1228 Si 0.7919999957084656 0.38440001010894775 0.5619000196456909
Si1229 Si 0.2919999957084656 0.38440001010894775 0.43810001015663147
Si1230 Si 0.2919999957084656 0.38440001010894775 0.9380999803543091
Si1231 Si 0.7919999957084656 0.38440001010894775 0.43810001015663147
Si1232 Si 0.7919999957084656 0.38440001010894775 0.9380999803543091
Si1233 Si 0.2919999957084656 0.6155999898910522 0.061900001019239426
Si1234 Si 0.2919999957084656 0.6155999898910522 0.5619000196456909
Si1235 Si 0.7919999957084656 0.6155999898910522 0.061900001019239426
Si1236 Si 0.7919999957084656 0.6155999898910522 0.5619000196456909
Si1237 Si 0.2919999957084656 0.6155999898910522 0.43810001015663147
Si1238 Si 0.2919999957084656 0.6155999898910522 0.9380999803543091
Si1239 Si 0.7919999957084656 0.6155999898910522 0.43810001015663147
Si1240 Si 0.7919999957084656 0.6155999898910522 0.9380999803543091
Si1241 Si 0.2924000024795532 0.23890000581741333 0.18930000066757202
Si1242 Si 0.2924000024795532 0.23890000581741333 0.689300000667572
Si1243 Si 0.7924000024795532 0.23890000581741333 0.18930000066757202
Si1244 Si 0.7924000024795532 0.23890000581741333 0.689300000667572
Si1245 Si 0.2924000024795532 0.23890000581741333 0.310699999332428
Si1246 Si 0.2924000024795532 0.23890000581741333 0.810699999332428
Si1247 Si 0.7924000024795532 0.23890000581741333 0.310699999332428
Si1248 Si 0.7924000024795532 0.23890000581741333 0.810699999332428
Si1249 Si 0.2924000024795532 0.7610999941825867 0.18930000066757202
Si1250 Si 0.2924000024795532 0.7610999941825867 0.689300000667572
Si1251 Si 0.7924000024795532 0.7610999941825867 0.18930000066757202
Si1252 Si 0.7924000024795532 0.7610999941825867 0.689300000667572
Si1253 Si 0.2924000024795532 0.7610999941825867 0.310699999332428
Si1254 Si 0.2924000024795532 0.7610999941825867 0.810699999332428
Si1255 Si 0.7924000024795532 0.7610999941825867 0.310699999332428
Si1256 Si 0.7924000024795532 0.7610999941825867 0.810699999332428
Si1257 Si 0.29339998960494995 0.37610000371932983 0.25
Si1258 Si 0.29339998960494995 0.37610000371932983 0.75
Si1259 Si 0.79339998960495 0.37610000371932983 0.25
Si1260 Si 0.79339998960495 0.37610000371932983 0.75
Si1261 Si 0.29339998960494995 0.6238999962806702 0.25
Si1262 Si 0.29339998960494995 0.6238999962806702 0.75
Si1263 Si 0.79339998960495 0.6238999962806702 0.25
Si1264 Si 0.79339998960495 0.6238999962806702 0.75
Si1265 Si 0.29394999146461487 0.0 0.188400000333786
Si1266 Si 0.29394999146461487 0.0 0.6883999705314636
Si1267 Si 0.7939500212669373 0.0 0.188400000333786
Si1268 Si 0.7939500212669373 0.0 0.6883999705314636
Si1269 Si 0.29394999146461487 0.0 0.311599999666214
Si1270 Si 0.29394999146461487 0.0 0.8116000294685364
Si1271 Si 0.7939500212669373 0.0 0.311599999666214
Si1272 Si 0.7939500212669373 0.0 0.8116000294685364
Si1273 Si 0.3210499882698059 0.32359999418258667 0.149399995803833
Si1274 Si 0.3210499882698059 0.32359999418258667 0.649399995803833
Si1275 Si 0.8210499882698059 0.32359999418258667 0.149399995803833
Si1276 Si 0.8210499882698059 0.32359999418258667 0.649399995803833
Si1277 Si 0.3210499882698059 0.32359999418258667 0.350600004196167
Si1278 Si 0.3210499882698059 0.32359999418258667 0.850600004196167
Si1279 Si 0.8210499882698059 0.32359999418258667 0.350600004196167
Si1280 Si 0.8210499882698059 0.32359999418258667 0.850600004196167
Si1281 Si 0.3210499882698059 0.6764000058174133 0.149399995803833
Si1282 Si 0.3210499882698059 0.6764000058174133 0.649399995803833
Si1283 Si 0.8210499882698059 0.6764000058174133 0.149399995803833
Si1284 Si 0.8210499882698059 0.6764000058174133 0.649399995803833
Si1285 Si 0.3210499882698059 0.6764000058174133 0.350600004196167
Si1286 Si 0.3210499882698059 0.6764000058174133 0.850600004196167
Si1287 Si 0.8210499882698059 0.6764000058174133 0.350600004196167
Si1288 Si 0.8210499882698059 0.6764000058174133 0.850600004196167
Si1289 Si 0.3463500142097473 0.07069999724626541 0.15569999814033508
Si1290 Si 0.3463500142097473 0.07069999724626541 0.6557000279426575
Si1291 Si 0.8463500142097473 0.07069999724626541 0.15569999814033508
Si1292 Si 0.8463500142097473 0.07069999724626541 0.6557000279426575
Si1293 Si 0.3463500142097473 0.07069999724626541 0.3443000018596649
Si1294 Si 0.3463500142097473 0.07069999724626541 0.8442999720573425
Si1295 Si 0.8463500142097473 0.07069999724626541 0.3443000018596649
Si1296 Si 0.8463500142097473 0.07069999724626541 0.8442999720573425
Si1297 Si 0.3463500142097473 0.9293000102043152 0.15569999814033508
Si1298 Si 0.3463500142097473 0.9293000102043152 0.6557000279426575
Si1299 Si 0.8463500142097473 0.9293000102043152 0.15569999814033508
Si1300 Si 0.8463500142097473 0.9293000102043152 0.6557000279426575
Si1301 Si 0.3463500142097473 0.9293000102043152 0.3443000018596649
Si1302 Si 0.3463500142097473 0.9293000102043152 0.8442999720573425
Si1303 Si 0.8463500142097473 0.9293000102043152 0.3443000018596649
Si1304 Si 0.8463500142097473 0.9293000102043152 0.8442999720573425
Si1305 Si 0.34904998540878296 0.45239999890327454 0.25
Si1306 Si 0.34904998540878296 0.45239999890327454 0.75
Si1307 Si 0.849049985408783 0.45239999890327454 0.25
Si1308 Si 0.849049985408783 0.45239999890327454 0.75
Si1309 Si 0.34904998540878296 0.5475999712944031 0.25
Si1310 Si 0.34904998540878296 0.5475999712944031 0.75
Si1311 Si 0.849049985408783 0.5475999712944031 0.25
Si1312 Si 0.849049985408783 0.5475999712944031 0.75
Si1313 Si 0.34929999709129333 0.16380000114440918 0.18835000693798065
Si1314 Si 0.34929999709129333 0.16380000114440918 0.6883500218391418
Si1315 Si 0.8493000268936157 0.16380000114440918 0.18835000693798065
Si1316 Si 0.8493000268936157 0.16380000114440918 0.6883500218391418
Si1317 Si 0.34929999709129333 0.16380000114440918 0.31165000796318054
Si1318 Si 0.34929999709129333 0.16380000114440918 0.8116499781608582
Si1319 Si 0.8493000268936157 0.16380000114440918 0.31165000796318054
Si1320 Si 0.8493000268936157 0.16380000114440918 0.8116499781608582
Si1321 Si 0.34929999709129333 0.8361999988555908 0.18835000693798065
Si1322 Si 0.34929999709129333 0.8361999988555908 0.6883500218391418
Si1323 Si 0.8493000268936157 0.8361999988555908 0.18835000693798065
Si1324 Si 0.8493000268936157 0.8361999988555908 0.6883500218391418
Si1325 Si 0.34929999709129333 0.8361999988555908 0.31165000796318054
Si1326 Si 0.34929999709129333 0.8361999988555908 0.8116499781608582
Si1327 Si 0.8493000268936157 0.8361999988555908 0.31165000796318054
Si1328 Si 0.8493000268936157 0.8361999988555908 0.8116499781608582
Si1329 Si 0.35374999046325684 0.4512999951839447 0.06145000085234642
Si1330 Si 0.35374999046325684 0.4512999951839447 0.5614500045776367
Si1331 Si 0.8537499904632568 0.4512999951839447 0.06145000085234642
Si1332 Si 0.8537499904632568 0.4512999951839447 0.5614500045776367
Si1333 Si 0.35374999046325684 0.4512999951839447 0.4385499954223633
Si1334 Si 0.35374999046325684 0.4512999951839447 0.9385499954223633
Si1335 Si 0.8537499904632568 0.4512999951839447 0.4385499954223633
Si1336 Si 0.8537499904632568 0.4512999951839447 0.9385499954223633
Si1337 Si 0.35374999046325684 0.5486999750137329 0.06145000085234642
Si1338 Si 0.35374999046325684 0.5486999750137329 0.5614500045776367
Si1339 Si 0.8537499904632568 0.5486999750137329 0.06145000085234642
Si1340 Si 0.8537499904632568 0.5486999750137329 0.5614500045776367
Si1341 Si 0.35374999046325684 0.5486999750137329 0.4385499954223633
Si1342 Si 0.35374999046325684 0.5486999750137329 0.9385499954223633
Si1343 Si 0.8537499904632568 0.5486999750137329 0.4385499954223633
Si1344 Si 0.8537499904632568 0.5486999750137329 0.9385499954223633
Si1345 Si 0.39625000953674316 0.048700001090765 0.06145000085234642
Si1346 Si 0.39625000953674316 0.048700001090765 0.5614500045776367
Si1347 Si 0.8962500095367432 0.048700001090765 0.06145000085234642
Si1348 Si 0.8962500095367432 0.048700001090765 0.5614500045776367
Si1349 Si 0.39625000953674316 0.048700001090765 0.4385499954223633
Si1350 Si 0.39625000953674316 0.048700001090765 0.9385499954223633
Si1351 Si 0.8962500095367432 0.048700001090765 0.4385499954223633
Si1352 Si 0.8962500095367432 0.048700001090765 0.9385499954223633
Si1353 Si 0.39625000953674316 0.9513000249862671 0.06145000085234642
Si1354 Si 0.39625000953674316 0.9513000249862671 0.5614500045776367
Si1355 Si 0.8962500095367432 0.9513000249862671 0.06145000085234642
Si1356 Si 0.8962500095367432 0.9513000249862671 0.5614500045776367
Si1357 Si 0.39625000953674316 0.9513000249862671 0.4385499954223633
Si1358 Si 0.39625000953674316 0.9513000249862671 0.9385499954223633
Si1359 Si 0.8962500095367432 0.9513000249862671 0.4385499954223633
Si1360 Si 0.8962500095367432 0.9513000249862671 0.9385499954223633
Si1361 Si 0.40070000290870667 0.3361999988555908 0.18835000693798065
Si1362 Si 0.40070000290870667 0.3361999988555908 0.6883500218391418
Si1363 Si 0.9006999731063843 0.3361999988555908 0.18835000693798065
Si1364 Si 0.9006999731063843 0.3361999988555908 0.6883500218391418
Si1365 Si 0.40070000290870667 0.3361999988555908 0.31165000796318054
Si1366 Si 0.40070000290870667 0.3361999988555908 0.8116499781608582
Si1367 Si 0.9006999731063843 0.3361999988555908 0.31165000796318054
Si1368 Si 0.9006999731063843 0.3361999988555908 0.8116499781608582
Si1369 Si 0.40070000290870667 0.6638000011444092 0.18835000693798065
Si1370 Si 0.40070000290870667 0.6638000011444092 0.6883500218391418
Si1371 Si 0.9006999731063843 0.6638000011444092 0.18835000693798065
Si1372 Si 0.9006999731063843 0.6638000011444092 0.6883500218391418
Si1373 Si 0.40070000290870667 0.6638000011444092 0.31165000796318054
Si1374 Si 0.40070000290870667 0.6638000011444092 0.8116499781608582
Si1375 Si 0.9006999731063843 0.6638000011444092 0.31165000796318054
Si1376 Si 0.9006999731063843 0.6638000011444092 0.8116499781608582
Si1377 Si 0.40095001459121704 0.047600001096725464 0.25
Si1378 Si 0.40095001459121704 0.047600001096725464 0.75
Si1379 Si 0.900950014591217 0.047600001096725464 0.25
Si1380 Si 0.900950014591217 0.047600001096725464 0.75
Si1381 Si 0.40095001459121704 0.9524000287055969 0.25
Si1382 Si 0.40095001459121704 0.9524000287055969 0.75
Si1383 Si 0.900950014591217 0.9524000287055969 0.25
Si1384 Si 0.900950014591217 0.9524000287055969 0.75
Si1385 Si 0.4036499857902527 0.4293000102043152 0.15569999814033508
Si1386 Si 0.4036499857902527 0.4293000102043152 0.6557000279426575
Si1387 Si 0.9036499857902527 0.4293000102043152 0.15569999814033508
Si1388 Si 0.9036499857902527 0.4293000102043152 0.6557000279426575
Si1389 Si 0.4036499857902527 0.4293000102043152 0.3443000018596649
Si1390 Si 0.4036499857902527 0.4293000102043152 0.8442999720573425
Si1391 Si 0.9036499857902527 0.4293000102043152 0.3443000018596649
Si1392 Si 0.9036499857902527 0.4293000102043152 0.8442999720573425
Si1393 Si 0.4036499857902527 0.5706999897956848 0.15569999814033508
Si1394 Si 0.4036499857902527 0.5706999897956848 0.6557000279426575
Si1395 Si 0.9036499857902527 0.5706999897956848 0.15569999814033508
Si1396 Si 0.9036499857902527 0.5706999897956848 0.6557000279426575
Si1397 Si 0.4036499857902527 0.5706999897956848 0.3443000018596649
Si1398 Si 0.4036499857902527 0.5706999897956848 0.8442999720573425
Si1399 Si 0.9036499857902527 0.5706999897956848 0.3443000018596649
Si1400 Si 0.9036499857902527 0.5706999897956848 0.8442999720573425
Si1401 Si 0.4289500117301941 0.17640000581741333 0.149399995803833
Si1402 Si 0.4289500117301941 0.17640000581741333 0.649399995803833
Si1403 Si 0.9289500117301941 0.17640000581741333 0.149399995803833
Si1404 Si 0.9289500117301941 0.17640000581741333 0.649399995803833
Si1405 Si 0.4289500117301941 0.17640000581741333 0.350600004196167
Si1406 Si 0.4289500117301941 0.17640000581741333 0.850600004196167
Si1407 Si 0.9289500117301941 0.17640000581741333 0.350600004196167
Si1408 Si 0.9289500117301941 0.17640000581741333 0.850600004196167
Si1409 Si 0.4289500117301941 0.8235999941825867 0.149399995803833
Si1410 Si 0.4289500117301941 0.8235999941825867 0.649399995803833
Si1411 Si 0.9289500117301941 0.8235999941825867 0.149399995803833
Si1412 Si 0.9289500117301941 0.8235999941825867 0.649399995803833
Si1413 Si 0.4289500117301941 0.8235999941825867 0.350600004196167
Si1414 Si 0.4289500117301941 0.8235999941825867 0.850600004196167
Si1415 Si 0.9289500117301941 0.8235999941825867 0.350600004196167
Si1416 Si 0.9289500117301941 0.8235999941825867 0.850600004196167
Si1417 Si 0.45605000853538513 0.5 0.188400000333786
Si1418 Si 0.45605000853538513 0.5 0.6883999705314636
Si1419 Si 0.9560499787330627 0.5 0.188400000333786
Si1420 Si 0.9560499787330627 0.5 0.6883999705314636
Si1421 Si 0.45605000853538513 0.5 0.311599999666214
Si1422 Si 0.45605000853538513 0.5 0.8116000294685364
Si1423 Si 0.9560499787330627 0.5 0.311599999666214
Si1424 Si 0.9560499787330627 0.5 0.8116000294685364
Si1425 Si 0.45660001039505005 0.12389999628067017 0.25
Si1426 Si 0.45660001039505005 0.12389999628067017 0.75
Si1427 Si 0.95660001039505 0.12389999628067017 0.25
Si1428 Si 0.95660001039505 0.12389999628067017 0.75
Si1429 Si 0.45660001039505005 0.8761000037193298 0.25
Si1430 Si 0.45660001039505005 0.8761000037193298 0.75
Si1431 Si 0.95660001039505 0.8761000037193298 0.25
Si1432 Si 0.95660001039505 0.8761000037193298 0.75
Si1433 Si 0.4575999975204468 0.26109999418258667 0.18930000066757202
Si1434 Si 0.4575999975204468 0.26109999418258667 0.689300000667572
Si1435 Si 0.9575999975204468 0.26109999418258667 0.18930000066757202
Si1436 Si 0.9575999975204468 0.26109999418258667 0.689300000667572
Si1437 Si 0.4575999975204468 0.26109999418258667 0.310699999332428
Si1438 Si 0.4575999975204468 0.26109999418258667 0.810699999332428
Si1439 Si 0.9575999975204468 0.26109999418258667 0.310699999332428
Si1440 Si 0.9575999975204468 0.26109999418258667 0.810699999332428
Si1441 Si 0.4575999975204468 0.7389000058174133 0.18930000066757202
Si1442 Si 0.4575999975204468 0.7389000058174133 0.689300000667572
Si1443 Si 0.9575999975204468 0.7389000058174133 0.18930000066757202
Si1444 Si 0.9575999975204468 0.7389000058174133 0.689300000667572
Si1445 Si 0.4575999975204468 0.7389000058174133 0.310699999332428
Si1446 Si 0.4575999975204468 0.7389000058174133 0.810699999332428
Si1447 Si 0.9575999975204468 0.7389000058174133 0.310699999332428
Si1448 Si 0.9575999975204468 0.7389000058174133 0.810699999332428
Si1449 Si 0.4580000042915344 0.11559999734163284 0.061900001019239426
Si1450 Si 0.4580000042915344 0.11559999734163284 0.5619000196456909
Si1451 Si 0.9580000042915344 0.11559999734163284 0.061900001019239426
Si1452 Si 0.9580000042915344 0.11559999734163284 0.5619000196456909
Si1453 Si 0.4580000042915344 0.11559999734163284 0.43810001015663147
Si1454 Si 0.4580000042915344 0.11559999734163284 0.9380999803543091
Si1455 Si 0.9580000042915344 0.11559999734163284 0.43810001015663147
Si1456 Si 0.9580000042915344 0.11559999734163284 0.9380999803543091
Si1457 Si 0.4580000042915344 0.8844000101089478 0.061900001019239426
Si1458 Si 0.4580000042915344 0.8844000101089478 0.5619000196456909
Si1459 Si 0.9580000042915344 0.8844000101089478 0.061900001019239426
Si1460 Si 0.9580000042915344 0.8844000101089478 0.5619000196456909
Si1461 Si 0.4580000042915344 0.8844000101089478 0.43810001015663147
Si1462 Si 0.4580000042915344 0.8844000101089478 0.9380999803543091
Si1463 Si 0.9580000042915344 0.8844000101089478 0.43810001015663147
Si1464 Si 0.9580000042915344 0.8844000101089478 0.9380999803543091
