data_image0
_symmetry_space_group_name_H-M    "P 1"
_symmetry_int_tables_number       1

loop_
 _symmetry_equiv_pos_as_xyz
 'x, y, z'

_cell_length_a	30.744
_cell_length_b	27.576
_cell_length_c	27.128
_cell_angle_alpha	90.0000
_cell_angle_beta	111.5450
_cell_angle_gamma	90.0000

loop_
 _atom_site_label
 _atom_site_type_symbol
 _atom_site_fract_x
 _atom_site_fract_y
 _atom_site_fract_z
O1 O 0.0 0.10324999690055847 0.125
O2 O 0.0 0.10324999690055847 0.375
O3 O 0.0 0.10324999690055847 0.625
O4 O 0.0 0.10324999690055847 0.875
O5 O 0.0 0.6032500267028809 0.125
O6 O 0.0 0.6032500267028809 0.375
O7 O 0.0 0.6032500267028809 0.625
O8 O 0.0 0.6032500267028809 0.875
O9 O 0.3333333432674408 0.10324999690055847 0.125
O10 O 0.3333333432674408 0.10324999690055847 0.375
O11 O 0.3333333432674408 0.10324999690055847 0.625
O12 O 0.3333333432674408 0.10324999690055847 0.875
O13 O 0.3333333432674408 0.6032500267028809 0.125
O14 O 0.3333333432674408 0.6032500267028809 0.375
O15 O 0.3333333432674408 0.6032500267028809 0.625
O16 O 0.3333333432674408 0.6032500267028809 0.875
O17 O 0.6666666865348816 0.10324999690055847 0.125
O18 O 0.6666666865348816 0.10324999690055847 0.375
O19 O 0.6666666865348816 0.10324999690055847 0.625
O20 O 0.6666666865348816 0.10324999690055847 0.875
O21 O 0.6666666865348816 0.6032500267028809 0.125
O22 O 0.6666666865348816 0.6032500267028809 0.375
O23 O 0.6666666865348816 0.6032500267028809 0.625
O24 O 0.6666666865348816 0.6032500267028809 0.875
O25 O 0.0 0.17595000565052032 0.0
O26 O 0.0 0.17595000565052032 0.25
O27 O 0.0 0.17595000565052032 0.5
O28 O 0.0 0.17595000565052032 0.75
O29 O 0.0 0.6759499907493591 0.0
O30 O 0.0 0.6759499907493591 0.25
O31 O 0.0 0.6759499907493591 0.5
O32 O 0.0 0.6759499907493591 0.75
O33 O 0.3333333432674408 0.17595000565052032 0.0
O34 O 0.3333333432674408 0.17595000565052032 0.25
O35 O 0.3333333432674408 0.17595000565052032 0.5
O36 O 0.3333333432674408 0.17595000565052032 0.75
O37 O 0.3333333432674408 0.6759499907493591 0.0
O38 O 0.3333333432674408 0.6759499907493591 0.25
O39 O 0.3333333432674408 0.6759499907493591 0.5
O40 O 0.3333333432674408 0.6759499907493591 0.75
O41 O 0.6666666865348816 0.17595000565052032 0.0
O42 O 0.6666666865348816 0.17595000565052032 0.25
O43 O 0.6666666865348816 0.17595000565052032 0.5
O44 O 0.6666666865348816 0.17595000565052032 0.75
O45 O 0.6666666865348816 0.6759499907493591 0.0
O46 O 0.6666666865348816 0.6759499907493591 0.25
O47 O 0.6666666865348816 0.6759499907493591 0.5
O48 O 0.6666666865348816 0.6759499907493591 0.75
O49 O 0.0 0.32405000925064087 0.0
O50 O 0.0 0.32405000925064087 0.25
O51 O 0.0 0.32405000925064087 0.5
O52 O 0.0 0.32405000925064087 0.75
O53 O 0.0 0.8240500092506409 0.0
O54 O 0.0 0.8240500092506409 0.25
O55 O 0.0 0.8240500092506409 0.5
O56 O 0.0 0.8240500092506409 0.75
O57 O 0.3333333432674408 0.32405000925064087 0.0
O58 O 0.3333333432674408 0.32405000925064087 0.25
O59 O 0.3333333432674408 0.32405000925064087 0.5
O60 O 0.3333333432674408 0.32405000925064087 0.75
O61 O 0.3333333432674408 0.8240500092506409 0.0
O62 O 0.3333333432674408 0.8240500092506409 0.25
O63 O 0.3333333432674408 0.8240500092506409 0.5
O64 O 0.3333333432674408 0.8240500092506409 0.75
O65 O 0.6666666865348816 0.32405000925064087 0.0
O66 O 0.6666666865348816 0.32405000925064087 0.25
O67 O 0.6666666865348816 0.32405000925064087 0.5
O68 O 0.6666666865348816 0.32405000925064087 0.75
O69 O 0.6666666865348816 0.8240500092506409 0.0
O70 O 0.6666666865348816 0.8240500092506409 0.25
O71 O 0.6666666865348816 0.8240500092506409 0.5
O72 O 0.6666666865348816 0.8240500092506409 0.75
O73 O 0.0 0.39675000309944153 0.125
O74 O 0.0 0.39675000309944153 0.375
O75 O 0.0 0.39675000309944153 0.625
O76 O 0.0 0.39675000309944153 0.875
O77 O 0.0 0.8967499732971191 0.125
O78 O 0.0 0.8967499732971191 0.375
O79 O 0.0 0.8967499732971191 0.625
O80 O 0.0 0.8967499732971191 0.875
O81 O 0.3333333432674408 0.39675000309944153 0.125
O82 O 0.3333333432674408 0.39675000309944153 0.375
O83 O 0.3333333432674408 0.39675000309944153 0.625
O84 O 0.3333333432674408 0.39675000309944153 0.875
O85 O 0.3333333432674408 0.8967499732971191 0.125
O86 O 0.3333333432674408 0.8967499732971191 0.375
O87 O 0.3333333432674408 0.8967499732971191 0.625
O88 O 0.3333333432674408 0.8967499732971191 0.875
O89 O 0.6666666865348816 0.39675000309944153 0.125
O90 O 0.6666666865348816 0.39675000309944153 0.375
O91 O 0.6666666865348816 0.39675000309944153 0.625
O92 O 0.6666666865348816 0.39675000309944153 0.875
O93 O 0.6666666865348816 0.8967499732971191 0.125
O94 O 0.6666666865348816 0.8967499732971191 0.375
O95 O 0.6666666865348816 0.8967499732971191 0.625
O96 O 0.6666666865348816 0.8967499732971191 0.875
O97 O 0.04859999939799309 0.25 0.2368749976158142
O98 O 0.04859999939799309 0.25 0.4868749976158142
O99 O 0.04859999939799309 0.25 0.7368749976158142
O100 O 0.04859999939799309 0.25 0.9868749976158142
O101 O 0.04859999939799309 0.75 0.2368749976158142
O102 O 0.04859999939799309 0.75 0.4868749976158142
O103 O 0.04859999939799309 0.75 0.7368749976158142
O104 O 0.04859999939799309 0.75 0.9868749976158142
O105 O 0.381933331489563 0.25 0.2368749976158142
O106 O 0.381933331489563 0.25 0.4868749976158142
O107 O 0.381933331489563 0.25 0.7368749976158142
O108 O 0.381933331489563 0.25 0.9868749976158142
O109 O 0.381933331489563 0.75 0.2368749976158142
O110 O 0.381933331489563 0.75 0.4868749976158142
O111 O 0.381933331489563 0.75 0.7368749976158142
O112 O 0.381933331489563 0.75 0.9868749976158142
O113 O 0.7152667045593262 0.25 0.2368749976158142
O114 O 0.7152667045593262 0.25 0.4868749976158142
O115 O 0.7152667045593262 0.25 0.7368749976158142
O116 O 0.7152667045593262 0.25 0.9868749976158142
O117 O 0.7152667045593262 0.75 0.2368749976158142
O118 O 0.7152667045593262 0.75 0.4868749976158142
O119 O 0.7152667045593262 0.75 0.7368749976158142
O120 O 0.7152667045593262 0.75 0.9868749976158142
O121 O 0.05336666479706764 0.16574999690055847 0.19407500326633453
O122 O 0.05336666479706764 0.16574999690055847 0.44407498836517334
O123 O 0.05336666479706764 0.16574999690055847 0.6940749883651733
O124 O 0.05336666479706764 0.16574999690055847 0.9440749883651733
O125 O 0.05336666479706764 0.6657500267028809 0.19407500326633453
O126 O 0.05336666479706764 0.6657500267028809 0.44407498836517334
O127 O 0.05336666479706764 0.6657500267028809 0.6940749883651733
O128 O 0.05336666479706764 0.6657500267028809 0.9440749883651733
O129 O 0.38670000433921814 0.16574999690055847 0.19407500326633453
O130 O 0.38670000433921814 0.16574999690055847 0.44407498836517334
O131 O 0.38670000433921814 0.16574999690055847 0.6940749883651733
O132 O 0.38670000433921814 0.16574999690055847 0.9440749883651733
O133 O 0.38670000433921814 0.6657500267028809 0.19407500326633453
O134 O 0.38670000433921814 0.6657500267028809 0.44407498836517334
O135 O 0.38670000433921814 0.6657500267028809 0.6940749883651733
O136 O 0.38670000433921814 0.6657500267028809 0.9440749883651733
O137 O 0.7200333476066589 0.16574999690055847 0.19407500326633453
O138 O 0.7200333476066589 0.16574999690055847 0.44407498836517334
O139 O 0.7200333476066589 0.16574999690055847 0.6940749883651733
O140 O 0.7200333476066589 0.16574999690055847 0.9440749883651733
O141 O 0.7200333476066589 0.6657500267028809 0.19407500326633453
O142 O 0.7200333476066589 0.6657500267028809 0.44407498836517334
O143 O 0.7200333476066589 0.6657500267028809 0.6940749883651733
O144 O 0.7200333476066589 0.6657500267028809 0.9440749883651733
O145 O 0.05336666479706764 0.33425000309944153 0.19407500326633453
O146 O 0.05336666479706764 0.33425000309944153 0.44407498836517334
O147 O 0.05336666479706764 0.33425000309944153 0.6940749883651733
O148 O 0.05336666479706764 0.33425000309944153 0.9440749883651733
O149 O 0.05336666479706764 0.8342499732971191 0.19407500326633453
O150 O 0.05336666479706764 0.8342499732971191 0.44407498836517334
O151 O 0.05336666479706764 0.8342499732971191 0.6940749883651733
O152 O 0.05336666479706764 0.8342499732971191 0.9440749883651733
O153 O 0.38670000433921814 0.33425000309944153 0.19407500326633453
O154 O 0.38670000433921814 0.33425000309944153 0.44407498836517334
O155 O 0.38670000433921814 0.33425000309944153 0.6940749883651733
O156 O 0.38670000433921814 0.33425000309944153 0.9440749883651733
O157 O 0.38670000433921814 0.8342499732971191 0.19407500326633453
O158 O 0.38670000433921814 0.8342499732971191 0.44407498836517334
O159 O 0.38670000433921814 0.8342499732971191 0.6940749883651733
O160 O 0.38670000433921814 0.8342499732971191 0.9440749883651733
O161 O 0.7200333476066589 0.33425000309944153 0.19407500326633453
O162 O 0.7200333476066589 0.33425000309944153 0.44407498836517334
O163 O 0.7200333476066589 0.33425000309944153 0.6940749883651733
O164 O 0.7200333476066589 0.33425000309944153 0.9440749883651733
O165 O 0.7200333476066589 0.8342499732971191 0.19407500326633453
O166 O 0.7200333476066589 0.8342499732971191 0.44407498836517334
O167 O 0.7200333476066589 0.8342499732971191 0.6940749883651733
O168 O 0.7200333476066589 0.8342499732971191 0.9440749883651733
O169 O 0.07526666671037674 0.07325000315904617 0.2025499939918518
O170 O 0.07526666671037674 0.07325000315904617 0.4525499939918518
O171 O 0.07526666671037674 0.07325000315904617 0.7025499939918518
O172 O 0.07526666671037674 0.07325000315904617 0.9525499939918518
O173 O 0.07526666671037674 0.5732499957084656 0.2025499939918518
O174 O 0.07526666671037674 0.5732499957084656 0.4525499939918518
O175 O 0.07526666671037674 0.5732499957084656 0.7025499939918518
O176 O 0.07526666671037674 0.5732499957084656 0.9525499939918518
O177 O 0.40860000252723694 0.07325000315904617 0.2025499939918518
O178 O 0.40860000252723694 0.07325000315904617 0.4525499939918518
O179 O 0.40860000252723694 0.07325000315904617 0.7025499939918518
O180 O 0.40860000252723694 0.07325000315904617 0.9525499939918518
O181 O 0.40860000252723694 0.5732499957084656 0.2025499939918518
O182 O 0.40860000252723694 0.5732499957084656 0.4525499939918518
O183 O 0.40860000252723694 0.5732499957084656 0.7025499939918518
O184 O 0.40860000252723694 0.5732499957084656 0.9525499939918518
O185 O 0.7419333457946777 0.07325000315904617 0.2025499939918518
O186 O 0.7419333457946777 0.07325000315904617 0.4525499939918518
O187 O 0.7419333457946777 0.07325000315904617 0.7025499939918518
O188 O 0.7419333457946777 0.07325000315904617 0.9525499939918518
O189 O 0.7419333457946777 0.5732499957084656 0.2025499939918518
O190 O 0.7419333457946777 0.5732499957084656 0.4525499939918518
O191 O 0.7419333457946777 0.5732499957084656 0.7025499939918518
O192 O 0.7419333457946777 0.5732499957084656 0.9525499939918518
O193 O 0.07526666671037674 0.4267500042915344 0.2025499939918518
O194 O 0.07526666671037674 0.4267500042915344 0.4525499939918518
O195 O 0.07526666671037674 0.4267500042915344 0.7025499939918518
O196 O 0.07526666671037674 0.4267500042915344 0.9525499939918518
O197 O 0.07526666671037674 0.9267500042915344 0.2025499939918518
O198 O 0.07526666671037674 0.9267500042915344 0.4525499939918518
O199 O 0.07526666671037674 0.9267500042915344 0.7025499939918518
O200 O 0.07526666671037674 0.9267500042915344 0.9525499939918518
O201 O 0.40860000252723694 0.4267500042915344 0.2025499939918518
O202 O 0.40860000252723694 0.4267500042915344 0.4525499939918518
O203 O 0.40860000252723694 0.4267500042915344 0.7025499939918518
O204 O 0.40860000252723694 0.4267500042915344 0.9525499939918518
O205 O 0.40860000252723694 0.9267500042915344 0.2025499939918518
O206 O 0.40860000252723694 0.9267500042915344 0.4525499939918518
O207 O 0.40860000252723694 0.9267500042915344 0.7025499939918518
O208 O 0.40860000252723694 0.9267500042915344 0.9525499939918518
O209 O 0.7419333457946777 0.4267500042915344 0.2025499939918518
O210 O 0.7419333457946777 0.4267500042915344 0.4525499939918518
O211 O 0.7419333457946777 0.4267500042915344 0.7025499939918518
O212 O 0.7419333457946777 0.4267500042915344 0.9525499939918518
O213 O 0.7419333457946777 0.9267500042915344 0.2025499939918518
O214 O 0.7419333457946777 0.9267500042915344 0.4525499939918518
O215 O 0.7419333457946777 0.9267500042915344 0.7025499939918518
O216 O 0.7419333457946777 0.9267500042915344 0.9525499939918518
O217 O 0.0833333358168602 0.125 0.125
O218 O 0.0833333358168602 0.125 0.375
O219 O 0.0833333358168602 0.125 0.625
O220 O 0.0833333358168602 0.125 0.875
O221 O 0.0833333358168602 0.625 0.125
O222 O 0.0833333358168602 0.625 0.375
O223 O 0.0833333358168602 0.625 0.625
O224 O 0.0833333358168602 0.625 0.875
O225 O 0.4166666567325592 0.125 0.125
O226 O 0.4166666567325592 0.125 0.375
O227 O 0.4166666567325592 0.125 0.625
O228 O 0.4166666567325592 0.125 0.875
O229 O 0.4166666567325592 0.625 0.125
O230 O 0.4166666567325592 0.625 0.375
O231 O 0.4166666567325592 0.625 0.625
O232 O 0.4166666567325592 0.625 0.875
O233 O 0.75 0.125 0.125
O234 O 0.75 0.125 0.375
O235 O 0.75 0.125 0.625
O236 O 0.75 0.125 0.875
O237 O 0.75 0.625 0.125
O238 O 0.75 0.625 0.375
O239 O 0.75 0.625 0.625
O240 O 0.75 0.625 0.875
O241 O 0.0833333358168602 0.375 0.125
O242 O 0.0833333358168602 0.375 0.375
O243 O 0.0833333358168602 0.375 0.625
O244 O 0.0833333358168602 0.375 0.875
O245 O 0.0833333358168602 0.875 0.125
O246 O 0.0833333358168602 0.875 0.375
O247 O 0.0833333358168602 0.875 0.625
O248 O 0.0833333358168602 0.875 0.875
O249 O 0.4166666567325592 0.375 0.125
O250 O 0.4166666567325592 0.375 0.375
O251 O 0.4166666567325592 0.375 0.625
O252 O 0.4166666567325592 0.375 0.875
O253 O 0.4166666567325592 0.875 0.125
O254 O 0.4166666567325592 0.875 0.375
O255 O 0.4166666567325592 0.875 0.625
O256 O 0.4166666567325592 0.875 0.875
O257 O 0.75 0.375 0.125
O258 O 0.75 0.375 0.375
O259 O 0.75 0.375 0.625
O260 O 0.75 0.375 0.875
O261 O 0.75 0.875 0.125
O262 O 0.75 0.875 0.375
O263 O 0.75 0.875 0.625
O264 O 0.75 0.875 0.875
O265 O 0.09139999747276306 0.17675000429153442 0.047449998557567596
O266 O 0.09139999747276306 0.17675000429153442 0.2974500060081482
O267 O 0.09139999747276306 0.17675000429153442 0.5474500060081482
O268 O 0.09139999747276306 0.17675000429153442 0.7974500060081482
O269 O 0.09139999747276306 0.6767500042915344 0.047449998557567596
O270 O 0.09139999747276306 0.6767500042915344 0.2974500060081482
O271 O 0.09139999747276306 0.6767500042915344 0.5474500060081482
O272 O 0.09139999747276306 0.6767500042915344 0.7974500060081482
O273 O 0.42473331093788147 0.17675000429153442 0.047449998557567596
O274 O 0.42473331093788147 0.17675000429153442 0.2974500060081482
O275 O 0.42473331093788147 0.17675000429153442 0.5474500060081482
O276 O 0.42473331093788147 0.17675000429153442 0.7974500060081482
O277 O 0.42473331093788147 0.6767500042915344 0.047449998557567596
O278 O 0.42473331093788147 0.6767500042915344 0.2974500060081482
O279 O 0.42473331093788147 0.6767500042915344 0.5474500060081482
O280 O 0.42473331093788147 0.6767500042915344 0.7974500060081482
O281 O 0.7580666542053223 0.17675000429153442 0.047449998557567596
O282 O 0.7580666542053223 0.17675000429153442 0.2974500060081482
O283 O 0.7580666542053223 0.17675000429153442 0.5474500060081482
O284 O 0.7580666542053223 0.17675000429153442 0.7974500060081482
O285 O 0.7580666542053223 0.6767500042915344 0.047449998557567596
O286 O 0.7580666542053223 0.6767500042915344 0.2974500060081482
O287 O 0.7580666542053223 0.6767500042915344 0.5474500060081482
O288 O 0.7580666542053223 0.6767500042915344 0.7974500060081482
O289 O 0.09139999747276306 0.3232499957084656 0.047449998557567596
O290 O 0.09139999747276306 0.3232499957084656 0.2974500060081482
O291 O 0.09139999747276306 0.3232499957084656 0.5474500060081482
O292 O 0.09139999747276306 0.3232499957084656 0.7974500060081482
O293 O 0.09139999747276306 0.8232499957084656 0.047449998557567596
O294 O 0.09139999747276306 0.8232499957084656 0.2974500060081482
O295 O 0.09139999747276306 0.8232499957084656 0.5474500060081482
O296 O 0.09139999747276306 0.8232499957084656 0.7974500060081482
O297 O 0.42473331093788147 0.3232499957084656 0.047449998557567596
O298 O 0.42473331093788147 0.3232499957084656 0.2974500060081482
O299 O 0.42473331093788147 0.3232499957084656 0.5474500060081482
O300 O 0.42473331093788147 0.3232499957084656 0.7974500060081482
O301 O 0.42473331093788147 0.8232499957084656 0.047449998557567596
O302 O 0.42473331093788147 0.8232499957084656 0.2974500060081482
O303 O 0.42473331093788147 0.8232499957084656 0.5474500060081482
O304 O 0.42473331093788147 0.8232499957084656 0.7974500060081482
O305 O 0.7580666542053223 0.3232499957084656 0.047449998557567596
O306 O 0.7580666542053223 0.3232499957084656 0.2974500060081482
O307 O 0.7580666542053223 0.3232499957084656 0.5474500060081482
O308 O 0.7580666542053223 0.3232499957084656 0.7974500060081482
O309 O 0.7580666542053223 0.8232499957084656 0.047449998557567596
O310 O 0.7580666542053223 0.8232499957084656 0.2974500060081482
O311 O 0.7580666542053223 0.8232499957084656 0.5474500060081482
O312 O 0.7580666542053223 0.8232499957084656 0.7974500060081482
O313 O 0.11329999566078186 0.08425000309944153 0.055925000458955765
O314 O 0.11329999566078186 0.08425000309944153 0.30592501163482666
O315 O 0.11329999566078186 0.08425000309944153 0.5559250116348267
O316 O 0.11329999566078186 0.08425000309944153 0.8059250116348267
O317 O 0.11329999566078186 0.5842499732971191 0.055925000458955765
O318 O 0.11329999566078186 0.5842499732971191 0.30592501163482666
O319 O 0.11329999566078186 0.5842499732971191 0.5559250116348267
O320 O 0.11329999566078186 0.5842499732971191 0.8059250116348267
O321 O 0.44663333892822266 0.08425000309944153 0.055925000458955765
O322 O 0.44663333892822266 0.08425000309944153 0.30592501163482666
O323 O 0.44663333892822266 0.08425000309944153 0.5559250116348267
O324 O 0.44663333892822266 0.08425000309944153 0.8059250116348267
O325 O 0.44663333892822266 0.5842499732971191 0.055925000458955765
O326 O 0.44663333892822266 0.5842499732971191 0.30592501163482666
O327 O 0.44663333892822266 0.5842499732971191 0.5559250116348267
O328 O 0.44663333892822266 0.5842499732971191 0.8059250116348267
O329 O 0.7799666523933411 0.08425000309944153 0.055925000458955765
O330 O 0.7799666523933411 0.08425000309944153 0.30592501163482666
O331 O 0.7799666523933411 0.08425000309944153 0.5559250116348267
O332 O 0.7799666523933411 0.08425000309944153 0.8059250116348267
O333 O 0.7799666523933411 0.5842499732971191 0.055925000458955765
O334 O 0.7799666523933411 0.5842499732971191 0.30592501163482666
O335 O 0.7799666523933411 0.5842499732971191 0.5559250116348267
O336 O 0.7799666523933411 0.5842499732971191 0.8059250116348267
O337 O 0.11329999566078186 0.41574999690055847 0.055925000458955765
O338 O 0.11329999566078186 0.41574999690055847 0.30592501163482666
O339 O 0.11329999566078186 0.41574999690055847 0.5559250116348267
O340 O 0.11329999566078186 0.41574999690055847 0.8059250116348267
O341 O 0.11329999566078186 0.9157500267028809 0.055925000458955765
O342 O 0.11329999566078186 0.9157500267028809 0.30592501163482666
O343 O 0.11329999566078186 0.9157500267028809 0.5559250116348267
O344 O 0.11329999566078186 0.9157500267028809 0.8059250116348267
O345 O 0.44663333892822266 0.41574999690055847 0.055925000458955765
O346 O 0.44663333892822266 0.41574999690055847 0.30592501163482666
O347 O 0.44663333892822266 0.41574999690055847 0.5559250116348267
O348 O 0.44663333892822266 0.41574999690055847 0.8059250116348267
O349 O 0.44663333892822266 0.9157500267028809 0.055925000458955765
O350 O 0.44663333892822266 0.9157500267028809 0.30592501163482666
O351 O 0.44663333892822266 0.9157500267028809 0.5559250116348267
O352 O 0.44663333892822266 0.9157500267028809 0.8059250116348267
O353 O 0.7799666523933411 0.41574999690055847 0.055925000458955765
O354 O 0.7799666523933411 0.41574999690055847 0.30592501163482666
O355 O 0.7799666523933411 0.41574999690055847 0.5559250116348267
O356 O 0.7799666523933411 0.41574999690055847 0.8059250116348267
O357 O 0.7799666523933411 0.9157500267028809 0.055925000458955765
O358 O 0.7799666523933411 0.9157500267028809 0.30592501163482666
O359 O 0.7799666523933411 0.9157500267028809 0.5559250116348267
O360 O 0.7799666523933411 0.9157500267028809 0.8059250116348267
O361 O 0.11806666851043701 0.0 0.013124999590218067
O362 O 0.11806666851043701 0.0 0.2631250023841858
O363 O 0.11806666851043701 0.0 0.5131250023841858
O364 O 0.11806666851043701 0.0 0.7631250023841858
O365 O 0.11806666851043701 0.5 0.013124999590218067
O366 O 0.11806666851043701 0.5 0.2631250023841858
O367 O 0.11806666851043701 0.5 0.5131250023841858
O368 O 0.11806666851043701 0.5 0.7631250023841858
O369 O 0.4514000117778778 0.0 0.013124999590218067
O370 O 0.4514000117778778 0.0 0.2631250023841858
O371 O 0.4514000117778778 0.0 0.5131250023841858
O372 O 0.4514000117778778 0.0 0.7631250023841858
O373 O 0.4514000117778778 0.5 0.013124999590218067
O374 O 0.4514000117778778 0.5 0.2631250023841858
O375 O 0.4514000117778778 0.5 0.5131250023841858
O376 O 0.4514000117778778 0.5 0.7631250023841858
O377 O 0.7847332954406738 0.0 0.013124999590218067
O378 O 0.7847332954406738 0.0 0.2631250023841858
O379 O 0.7847332954406738 0.0 0.5131250023841858
O380 O 0.7847332954406738 0.0 0.7631250023841858
O381 O 0.7847332954406738 0.5 0.013124999590218067
O382 O 0.7847332954406738 0.5 0.2631250023841858
O383 O 0.7847332954406738 0.5 0.5131250023841858
O384 O 0.7847332954406738 0.5 0.7631250023841858
O385 O 0.1666666716337204 0.07405000180006027 0.0
O386 O 0.1666666716337204 0.07405000180006027 0.25
O387 O 0.1666666716337204 0.07405000180006027 0.5
O388 O 0.1666666716337204 0.07405000180006027 0.75
O389 O 0.1666666716337204 0.5740500092506409 0.0
O390 O 0.1666666716337204 0.5740500092506409 0.25
O391 O 0.1666666716337204 0.5740500092506409 0.5
O392 O 0.1666666716337204 0.5740500092506409 0.75
O393 O 0.5 0.07405000180006027 0.0
O394 O 0.5 0.07405000180006027 0.25
O395 O 0.5 0.07405000180006027 0.5
O396 O 0.5 0.07405000180006027 0.75
O397 O 0.5 0.5740500092506409 0.0
O398 O 0.5 0.5740500092506409 0.25
O399 O 0.5 0.5740500092506409 0.5
O400 O 0.5 0.5740500092506409 0.75
O401 O 0.8333333134651184 0.07405000180006027 0.0
O402 O 0.8333333134651184 0.07405000180006027 0.25
O403 O 0.8333333134651184 0.07405000180006027 0.5
O404 O 0.8333333134651184 0.07405000180006027 0.75
O405 O 0.8333333134651184 0.5740500092506409 0.0
O406 O 0.8333333134651184 0.5740500092506409 0.25
O407 O 0.8333333134651184 0.5740500092506409 0.5
O408 O 0.8333333134651184 0.5740500092506409 0.75
O409 O 0.1666666716337204 0.14675000309944153 0.125
O410 O 0.1666666716337204 0.14675000309944153 0.375
O411 O 0.1666666716337204 0.14675000309944153 0.625
O412 O 0.1666666716337204 0.14675000309944153 0.875
O413 O 0.1666666716337204 0.6467499732971191 0.125
O414 O 0.1666666716337204 0.6467499732971191 0.375
O415 O 0.1666666716337204 0.6467499732971191 0.625
O416 O 0.1666666716337204 0.6467499732971191 0.875
O417 O 0.5 0.14675000309944153 0.125
O418 O 0.5 0.14675000309944153 0.375
O419 O 0.5 0.14675000309944153 0.625
O420 O 0.5 0.14675000309944153 0.875
O421 O 0.5 0.6467499732971191 0.125
O422 O 0.5 0.6467499732971191 0.375
O423 O 0.5 0.6467499732971191 0.625
O424 O 0.5 0.6467499732971191 0.875
O425 O 0.8333333134651184 0.14675000309944153 0.125
O426 O 0.8333333134651184 0.14675000309944153 0.375
O427 O 0.8333333134651184 0.14675000309944153 0.625
O428 O 0.8333333134651184 0.14675000309944153 0.875
O429 O 0.8333333134651184 0.6467499732971191 0.125
O430 O 0.8333333134651184 0.6467499732971191 0.375
O431 O 0.8333333134651184 0.6467499732971191 0.625
O432 O 0.8333333134651184 0.6467499732971191 0.875
O433 O 0.1666666716337204 0.35324999690055847 0.125
O434 O 0.1666666716337204 0.35324999690055847 0.375
O435 O 0.1666666716337204 0.35324999690055847 0.625
O436 O 0.1666666716337204 0.35324999690055847 0.875
O437 O 0.1666666716337204 0.8532500267028809 0.125
O438 O 0.1666666716337204 0.8532500267028809 0.375
O439 O 0.1666666716337204 0.8532500267028809 0.625
O440 O 0.1666666716337204 0.8532500267028809 0.875
O441 O 0.5 0.35324999690055847 0.125
O442 O 0.5 0.35324999690055847 0.375
O443 O 0.5 0.35324999690055847 0.625
O444 O 0.5 0.35324999690055847 0.875
O445 O 0.5 0.8532500267028809 0.125
O446 O 0.5 0.8532500267028809 0.375
O447 O 0.5 0.8532500267028809 0.625
O448 O 0.5 0.8532500267028809 0.875
O449 O 0.8333333134651184 0.35324999690055847 0.125
O450 O 0.8333333134651184 0.35324999690055847 0.375
O451 O 0.8333333134651184 0.35324999690055847 0.625
O452 O 0.8333333134651184 0.35324999690055847 0.875
O453 O 0.8333333134651184 0.8532500267028809 0.125
O454 O 0.8333333134651184 0.8532500267028809 0.375
O455 O 0.8333333134651184 0.8532500267028809 0.625
O456 O 0.8333333134651184 0.8532500267028809 0.875
O457 O 0.1666666716337204 0.42594999074935913 0.0
O458 O 0.1666666716337204 0.42594999074935913 0.25
O459 O 0.1666666716337204 0.42594999074935913 0.5
O460 O 0.1666666716337204 0.42594999074935913 0.75
O461 O 0.1666666716337204 0.9259499907493591 0.0
O462 O 0.1666666716337204 0.9259499907493591 0.25
O463 O 0.1666666716337204 0.9259499907493591 0.5
O464 O 0.1666666716337204 0.9259499907493591 0.75
O465 O 0.5 0.42594999074935913 0.0
O466 O 0.5 0.42594999074935913 0.25
O467 O 0.5 0.42594999074935913 0.5
O468 O 0.5 0.42594999074935913 0.75
O469 O 0.5 0.9259499907493591 0.0
O470 O 0.5 0.9259499907493591 0.25
O471 O 0.5 0.9259499907493591 0.5
O472 O 0.5 0.9259499907493591 0.75
O473 O 0.8333333134651184 0.42594999074935913 0.0
O474 O 0.8333333134651184 0.42594999074935913 0.25
O475 O 0.8333333134651184 0.42594999074935913 0.5
O476 O 0.8333333134651184 0.42594999074935913 0.75
O477 O 0.8333333134651184 0.9259499907493591 0.0
O478 O 0.8333333134651184 0.9259499907493591 0.25
O479 O 0.8333333134651184 0.9259499907493591 0.5
O480 O 0.8333333134651184 0.9259499907493591 0.75
O481 O 0.2152666598558426 0.0 0.2368749976158142
O482 O 0.2152666598558426 0.0 0.4868749976158142
O483 O 0.2152666598558426 0.0 0.7368749976158142
O484 O 0.2152666598558426 0.0 0.9868749976158142
O485 O 0.2152666598558426 0.5 0.2368749976158142
O486 O 0.2152666598558426 0.5 0.4868749976158142
O487 O 0.2152666598558426 0.5 0.7368749976158142
O488 O 0.2152666598558426 0.5 0.9868749976158142
O489 O 0.5486000180244446 0.0 0.2368749976158142
O490 O 0.5486000180244446 0.0 0.4868749976158142
O491 O 0.5486000180244446 0.0 0.7368749976158142
O492 O 0.5486000180244446 0.0 0.9868749976158142
O493 O 0.5486000180244446 0.5 0.2368749976158142
O494 O 0.5486000180244446 0.5 0.4868749976158142
O495 O 0.5486000180244446 0.5 0.7368749976158142
O496 O 0.5486000180244446 0.5 0.9868749976158142
O497 O 0.8819333910942078 0.0 0.2368749976158142
O498 O 0.8819333910942078 0.0 0.4868749976158142
O499 O 0.8819333910942078 0.0 0.7368749976158142
O500 O 0.8819333910942078 0.0 0.9868749976158142
O501 O 0.8819333910942078 0.5 0.2368749976158142
O502 O 0.8819333910942078 0.5 0.4868749976158142
O503 O 0.8819333910942078 0.5 0.7368749976158142
O504 O 0.8819333910942078 0.5 0.9868749976158142
O505 O 0.22003333270549774 0.08425000309944153 0.19407500326633453
O506 O 0.22003333270549774 0.08425000309944153 0.44407498836517334
O507 O 0.22003333270549774 0.08425000309944153 0.6940749883651733
O508 O 0.22003333270549774 0.08425000309944153 0.9440749883651733
O509 O 0.22003333270549774 0.5842499732971191 0.19407500326633453
O510 O 0.22003333270549774 0.5842499732971191 0.44407498836517334
O511 O 0.22003333270549774 0.5842499732971191 0.6940749883651733
O512 O 0.22003333270549774 0.5842499732971191 0.9440749883651733
O513 O 0.5533666610717773 0.08425000309944153 0.19407500326633453
O514 O 0.5533666610717773 0.08425000309944153 0.44407498836517334
O515 O 0.5533666610717773 0.08425000309944153 0.6940749883651733
O516 O 0.5533666610717773 0.08425000309944153 0.9440749883651733
O517 O 0.5533666610717773 0.5842499732971191 0.19407500326633453
O518 O 0.5533666610717773 0.5842499732971191 0.44407498836517334
O519 O 0.5533666610717773 0.5842499732971191 0.6940749883651733
O520 O 0.5533666610717773 0.5842499732971191 0.9440749883651733
O521 O 0.8866999745368958 0.08425000309944153 0.19407500326633453
O522 O 0.8866999745368958 0.08425000309944153 0.44407498836517334
O523 O 0.8866999745368958 0.08425000309944153 0.6940749883651733
O524 O 0.8866999745368958 0.08425000309944153 0.9440749883651733
O525 O 0.8866999745368958 0.5842499732971191 0.19407500326633453
O526 O 0.8866999745368958 0.5842499732971191 0.44407498836517334
O527 O 0.8866999745368958 0.5842499732971191 0.6940749883651733
O528 O 0.8866999745368958 0.5842499732971191 0.9440749883651733
O529 O 0.22003333270549774 0.41574999690055847 0.19407500326633453
O530 O 0.22003333270549774 0.41574999690055847 0.44407498836517334
O531 O 0.22003333270549774 0.41574999690055847 0.6940749883651733
O532 O 0.22003333270549774 0.41574999690055847 0.9440749883651733
O533 O 0.22003333270549774 0.9157500267028809 0.19407500326633453
O534 O 0.22003333270549774 0.9157500267028809 0.44407498836517334
O535 O 0.22003333270549774 0.9157500267028809 0.6940749883651733
O536 O 0.22003333270549774 0.9157500267028809 0.9440749883651733
O537 O 0.5533666610717773 0.41574999690055847 0.19407500326633453
O538 O 0.5533666610717773 0.41574999690055847 0.44407498836517334
O539 O 0.5533666610717773 0.41574999690055847 0.6940749883651733
O540 O 0.5533666610717773 0.41574999690055847 0.9440749883651733
O541 O 0.5533666610717773 0.9157500267028809 0.19407500326633453
O542 O 0.5533666610717773 0.9157500267028809 0.44407498836517334
O543 O 0.5533666610717773 0.9157500267028809 0.6940749883651733
O544 O 0.5533666610717773 0.9157500267028809 0.9440749883651733
O545 O 0.8866999745368958 0.41574999690055847 0.19407500326633453
O546 O 0.8866999745368958 0.41574999690055847 0.44407498836517334
O547 O 0.8866999745368958 0.41574999690055847 0.6940749883651733
O548 O 0.8866999745368958 0.41574999690055847 0.9440749883651733
O549 O 0.8866999745368958 0.9157500267028809 0.19407500326633453
O550 O 0.8866999745368958 0.9157500267028809 0.44407498836517334
O551 O 0.8866999745368958 0.9157500267028809 0.6940749883651733
O552 O 0.8866999745368958 0.9157500267028809 0.9440749883651733
O553 O 0.24193333089351654 0.17675000429153442 0.2025499939918518
O554 O 0.24193333089351654 0.17675000429153442 0.4525499939918518
O555 O 0.24193333089351654 0.17675000429153442 0.7025499939918518
O556 O 0.24193333089351654 0.17675000429153442 0.9525499939918518
O557 O 0.24193333089351654 0.6767500042915344 0.2025499939918518
O558 O 0.24193333089351654 0.6767500042915344 0.4525499939918518
O559 O 0.24193333089351654 0.6767500042915344 0.7025499939918518
O560 O 0.24193333089351654 0.6767500042915344 0.9525499939918518
O561 O 0.5752666592597961 0.17675000429153442 0.2025499939918518
O562 O 0.5752666592597961 0.17675000429153442 0.4525499939918518
O563 O 0.5752666592597961 0.17675000429153442 0.7025499939918518
O564 O 0.5752666592597961 0.17675000429153442 0.9525499939918518
O565 O 0.5752666592597961 0.6767500042915344 0.2025499939918518
O566 O 0.5752666592597961 0.6767500042915344 0.4525499939918518
O567 O 0.5752666592597961 0.6767500042915344 0.7025499939918518
O568 O 0.5752666592597961 0.6767500042915344 0.9525499939918518
O569 O 0.9086000323295593 0.17675000429153442 0.2025499939918518
O570 O 0.9086000323295593 0.17675000429153442 0.4525499939918518
O571 O 0.9086000323295593 0.17675000429153442 0.7025499939918518
O572 O 0.9086000323295593 0.17675000429153442 0.9525499939918518
O573 O 0.9086000323295593 0.6767500042915344 0.2025499939918518
O574 O 0.9086000323295593 0.6767500042915344 0.4525499939918518
O575 O 0.9086000323295593 0.6767500042915344 0.7025499939918518
O576 O 0.9086000323295593 0.6767500042915344 0.9525499939918518
O577 O 0.24193333089351654 0.3232499957084656 0.2025499939918518
O578 O 0.24193333089351654 0.3232499957084656 0.4525499939918518
O579 O 0.24193333089351654 0.3232499957084656 0.7025499939918518
O580 O 0.24193333089351654 0.3232499957084656 0.9525499939918518
O581 O 0.24193333089351654 0.8232499957084656 0.2025499939918518
O582 O 0.24193333089351654 0.8232499957084656 0.4525499939918518
O583 O 0.24193333089351654 0.8232499957084656 0.7025499939918518
O584 O 0.24193333089351654 0.8232499957084656 0.9525499939918518
O585 O 0.5752666592597961 0.3232499957084656 0.2025499939918518
O586 O 0.5752666592597961 0.3232499957084656 0.4525499939918518
O587 O 0.5752666592597961 0.3232499957084656 0.7025499939918518
O588 O 0.5752666592597961 0.3232499957084656 0.9525499939918518
O589 O 0.5752666592597961 0.8232499957084656 0.2025499939918518
O590 O 0.5752666592597961 0.8232499957084656 0.4525499939918518
O591 O 0.5752666592597961 0.8232499957084656 0.7025499939918518
O592 O 0.5752666592597961 0.8232499957084656 0.9525499939918518
O593 O 0.9086000323295593 0.3232499957084656 0.2025499939918518
O594 O 0.9086000323295593 0.3232499957084656 0.4525499939918518
O595 O 0.9086000323295593 0.3232499957084656 0.7025499939918518
O596 O 0.9086000323295593 0.3232499957084656 0.9525499939918518
O597 O 0.9086000323295593 0.8232499957084656 0.2025499939918518
O598 O 0.9086000323295593 0.8232499957084656 0.4525499939918518
O599 O 0.9086000323295593 0.8232499957084656 0.7025499939918518
O600 O 0.9086000323295593 0.8232499957084656 0.9525499939918518
O601 O 0.25 0.125 0.125
O602 O 0.25 0.125 0.375
O603 O 0.25 0.125 0.625
O604 O 0.25 0.125 0.875
O605 O 0.25 0.625 0.125
O606 O 0.25 0.625 0.375
O607 O 0.25 0.625 0.625
O608 O 0.25 0.625 0.875
O609 O 0.5833333134651184 0.125 0.125
O610 O 0.5833333134651184 0.125 0.375
O611 O 0.5833333134651184 0.125 0.625
O612 O 0.5833333134651184 0.125 0.875
O613 O 0.5833333134651184 0.625 0.125
O614 O 0.5833333134651184 0.625 0.375
O615 O 0.5833333134651184 0.625 0.625
O616 O 0.5833333134651184 0.625 0.875
O617 O 0.9166666865348816 0.125 0.125
O618 O 0.9166666865348816 0.125 0.375
O619 O 0.9166666865348816 0.125 0.625
O620 O 0.9166666865348816 0.125 0.875
O621 O 0.9166666865348816 0.625 0.125
O622 O 0.9166666865348816 0.625 0.375
O623 O 0.9166666865348816 0.625 0.625
O624 O 0.9166666865348816 0.625 0.875
O625 O 0.25 0.375 0.125
O626 O 0.25 0.375 0.375
O627 O 0.25 0.375 0.625
O628 O 0.25 0.375 0.875
O629 O 0.25 0.875 0.125
O630 O 0.25 0.875 0.375
O631 O 0.25 0.875 0.625
O632 O 0.25 0.875 0.875
O633 O 0.5833333134651184 0.375 0.125
O634 O 0.5833333134651184 0.375 0.375
O635 O 0.5833333134651184 0.375 0.625
O636 O 0.5833333134651184 0.375 0.875
O637 O 0.5833333134651184 0.875 0.125
O638 O 0.5833333134651184 0.875 0.375
O639 O 0.5833333134651184 0.875 0.625
O640 O 0.5833333134651184 0.875 0.875
O641 O 0.9166666865348816 0.375 0.125
O642 O 0.9166666865348816 0.375 0.375
O643 O 0.9166666865348816 0.375 0.625
O644 O 0.9166666865348816 0.375 0.875
O645 O 0.9166666865348816 0.875 0.125
O646 O 0.9166666865348816 0.875 0.375
O647 O 0.9166666865348816 0.875 0.625
O648 O 0.9166666865348816 0.875 0.875
O649 O 0.25806668400764465 0.07325000315904617 0.047449998557567596
O650 O 0.25806668400764465 0.07325000315904617 0.2974500060081482
O651 O 0.25806668400764465 0.07325000315904617 0.5474500060081482
O652 O 0.25806668400764465 0.07325000315904617 0.7974500060081482
O653 O 0.25806668400764465 0.5732499957084656 0.047449998557567596
O654 O 0.25806668400764465 0.5732499957084656 0.2974500060081482
O655 O 0.25806668400764465 0.5732499957084656 0.5474500060081482
O656 O 0.25806668400764465 0.5732499957084656 0.7974500060081482
O657 O 0.5913999676704407 0.07325000315904617 0.047449998557567596
O658 O 0.5913999676704407 0.07325000315904617 0.2974500060081482
O659 O 0.5913999676704407 0.07325000315904617 0.5474500060081482
O660 O 0.5913999676704407 0.07325000315904617 0.7974500060081482
O661 O 0.5913999676704407 0.5732499957084656 0.047449998557567596
O662 O 0.5913999676704407 0.5732499957084656 0.2974500060081482
O663 O 0.5913999676704407 0.5732499957084656 0.5474500060081482
O664 O 0.5913999676704407 0.5732499957084656 0.7974500060081482
O665 O 0.9247333407402039 0.07325000315904617 0.047449998557567596
O666 O 0.9247333407402039 0.07325000315904617 0.2974500060081482
O667 O 0.9247333407402039 0.07325000315904617 0.5474500060081482
O668 O 0.9247333407402039 0.07325000315904617 0.7974500060081482
O669 O 0.9247333407402039 0.5732499957084656 0.047449998557567596
O670 O 0.9247333407402039 0.5732499957084656 0.2974500060081482
O671 O 0.9247333407402039 0.5732499957084656 0.5474500060081482
O672 O 0.9247333407402039 0.5732499957084656 0.7974500060081482
O673 O 0.25806668400764465 0.4267500042915344 0.047449998557567596
O674 O 0.25806668400764465 0.4267500042915344 0.2974500060081482
O675 O 0.25806668400764465 0.4267500042915344 0.5474500060081482
O676 O 0.25806668400764465 0.4267500042915344 0.7974500060081482
O677 O 0.25806668400764465 0.9267500042915344 0.047449998557567596
O678 O 0.25806668400764465 0.9267500042915344 0.2974500060081482
O679 O 0.25806668400764465 0.9267500042915344 0.5474500060081482
O680 O 0.25806668400764465 0.9267500042915344 0.7974500060081482
O681 O 0.5913999676704407 0.4267500042915344 0.047449998557567596
O682 O 0.5913999676704407 0.4267500042915344 0.2974500060081482
O683 O 0.5913999676704407 0.4267500042915344 0.5474500060081482
O684 O 0.5913999676704407 0.4267500042915344 0.7974500060081482
O685 O 0.5913999676704407 0.9267500042915344 0.047449998557567596
O686 O 0.5913999676704407 0.9267500042915344 0.2974500060081482
O687 O 0.5913999676704407 0.9267500042915344 0.5474500060081482
O688 O 0.5913999676704407 0.9267500042915344 0.7974500060081482
O689 O 0.9247333407402039 0.4267500042915344 0.047449998557567596
O690 O 0.9247333407402039 0.4267500042915344 0.2974500060081482
O691 O 0.9247333407402039 0.4267500042915344 0.5474500060081482
O692 O 0.9247333407402039 0.4267500042915344 0.7974500060081482
O693 O 0.9247333407402039 0.9267500042915344 0.047449998557567596
O694 O 0.9247333407402039 0.9267500042915344 0.2974500060081482
O695 O 0.9247333407402039 0.9267500042915344 0.5474500060081482
O696 O 0.9247333407402039 0.9267500042915344 0.7974500060081482
O697 O 0.27996668219566345 0.16574999690055847 0.055925000458955765
O698 O 0.27996668219566345 0.16574999690055847 0.30592501163482666
O699 O 0.27996668219566345 0.16574999690055847 0.5559250116348267
O700 O 0.27996668219566345 0.16574999690055847 0.8059250116348267
O701 O 0.27996668219566345 0.6657500267028809 0.055925000458955765
O702 O 0.27996668219566345 0.6657500267028809 0.30592501163482666
O703 O 0.27996668219566345 0.6657500267028809 0.5559250116348267
O704 O 0.27996668219566345 0.6657500267028809 0.8059250116348267
O705 O 0.6133000254631042 0.16574999690055847 0.055925000458955765
O706 O 0.6133000254631042 0.16574999690055847 0.30592501163482666
O707 O 0.6133000254631042 0.16574999690055847 0.5559250116348267
O708 O 0.6133000254631042 0.16574999690055847 0.8059250116348267
O709 O 0.6133000254631042 0.6657500267028809 0.055925000458955765
O710 O 0.6133000254631042 0.6657500267028809 0.30592501163482666
O711 O 0.6133000254631042 0.6657500267028809 0.5559250116348267
O712 O 0.6133000254631042 0.6657500267028809 0.8059250116348267
O713 O 0.9466333389282227 0.16574999690055847 0.055925000458955765
O714 O 0.9466333389282227 0.16574999690055847 0.30592501163482666
O715 O 0.9466333389282227 0.16574999690055847 0.5559250116348267
O716 O 0.9466333389282227 0.16574999690055847 0.8059250116348267
O717 O 0.9466333389282227 0.6657500267028809 0.055925000458955765
O718 O 0.9466333389282227 0.6657500267028809 0.30592501163482666
O719 O 0.9466333389282227 0.6657500267028809 0.5559250116348267
O720 O 0.9466333389282227 0.6657500267028809 0.8059250116348267
O721 O 0.27996668219566345 0.33425000309944153 0.055925000458955765
O722 O 0.27996668219566345 0.33425000309944153 0.30592501163482666
O723 O 0.27996668219566345 0.33425000309944153 0.5559250116348267
O724 O 0.27996668219566345 0.33425000309944153 0.8059250116348267
O725 O 0.27996668219566345 0.8342499732971191 0.055925000458955765
O726 O 0.27996668219566345 0.8342499732971191 0.30592501163482666
O727 O 0.27996668219566345 0.8342499732971191 0.5559250116348267
O728 O 0.27996668219566345 0.8342499732971191 0.8059250116348267
O729 O 0.6133000254631042 0.33425000309944153 0.055925000458955765
O730 O 0.6133000254631042 0.33425000309944153 0.30592501163482666
O731 O 0.6133000254631042 0.33425000309944153 0.5559250116348267
O732 O 0.6133000254631042 0.33425000309944153 0.8059250116348267
O733 O 0.6133000254631042 0.8342499732971191 0.055925000458955765
O734 O 0.6133000254631042 0.8342499732971191 0.30592501163482666
O735 O 0.6133000254631042 0.8342499732971191 0.5559250116348267
O736 O 0.6133000254631042 0.8342499732971191 0.8059250116348267
O737 O 0.9466333389282227 0.33425000309944153 0.055925000458955765
O738 O 0.9466333389282227 0.33425000309944153 0.30592501163482666
O739 O 0.9466333389282227 0.33425000309944153 0.5559250116348267
O740 O 0.9466333389282227 0.33425000309944153 0.8059250116348267
O741 O 0.9466333389282227 0.8342499732971191 0.055925000458955765
O742 O 0.9466333389282227 0.8342499732971191 0.30592501163482666
O743 O 0.9466333389282227 0.8342499732971191 0.5559250116348267
O744 O 0.9466333389282227 0.8342499732971191 0.8059250116348267
O745 O 0.2847333252429962 0.25 0.013124999590218067
O746 O 0.2847333252429962 0.25 0.2631250023841858
O747 O 0.2847333252429962 0.25 0.5131250023841858
O748 O 0.2847333252429962 0.25 0.7631250023841858
O749 O 0.2847333252429962 0.75 0.013124999590218067
O750 O 0.2847333252429962 0.75 0.2631250023841858
O751 O 0.2847333252429962 0.75 0.5131250023841858
O752 O 0.2847333252429962 0.75 0.7631250023841858
O753 O 0.618066668510437 0.25 0.013124999590218067
O754 O 0.618066668510437 0.25 0.2631250023841858
O755 O 0.618066668510437 0.25 0.5131250023841858
O756 O 0.618066668510437 0.25 0.7631250023841858
O757 O 0.618066668510437 0.75 0.013124999590218067
O758 O 0.618066668510437 0.75 0.2631250023841858
O759 O 0.618066668510437 0.75 0.5131250023841858
O760 O 0.618066668510437 0.75 0.7631250023841858
O761 O 0.9513999819755554 0.25 0.013124999590218067
O762 O 0.9513999819755554 0.25 0.2631250023841858
O763 O 0.9513999819755554 0.25 0.5131250023841858
O764 O 0.9513999819755554 0.25 0.7631250023841858
O765 O 0.9513999819755554 0.75 0.013124999590218067
O766 O 0.9513999819755554 0.75 0.2631250023841858
O767 O 0.9513999819755554 0.75 0.5131250023841858
O768 O 0.9513999819755554 0.75 0.7631250023841858
O769 O 0.3333333432674408 0.10324999690055847 0.125
O770 O 0.3333333432674408 0.10324999690055847 0.375
O771 O 0.3333333432674408 0.10324999690055847 0.625
O772 O 0.3333333432674408 0.10324999690055847 0.875
O773 O 0.3333333432674408 0.6032500267028809 0.125
O774 O 0.3333333432674408 0.6032500267028809 0.375
O775 O 0.3333333432674408 0.6032500267028809 0.625
O776 O 0.3333333432674408 0.6032500267028809 0.875
O777 O 0.6666666865348816 0.10324999690055847 0.125
O778 O 0.6666666865348816 0.10324999690055847 0.375
O779 O 0.6666666865348816 0.10324999690055847 0.625
O780 O 0.6666666865348816 0.10324999690055847 0.875
O781 O 0.6666666865348816 0.6032500267028809 0.125
O782 O 0.6666666865348816 0.6032500267028809 0.375
O783 O 0.6666666865348816 0.6032500267028809 0.625
O784 O 0.6666666865348816 0.6032500267028809 0.875
O785 O 1.0 0.10324999690055847 0.125
O786 O 1.0 0.10324999690055847 0.375
O787 O 1.0 0.10324999690055847 0.625
O788 O 1.0 0.10324999690055847 0.875
O789 O 1.0 0.6032500267028809 0.125
O790 O 1.0 0.6032500267028809 0.375
O791 O 1.0 0.6032500267028809 0.625
O792 O 1.0 0.6032500267028809 0.875
O793 O 0.3333333432674408 0.17595000565052032 0.0
O794 O 0.3333333432674408 0.17595000565052032 0.25
O795 O 0.3333333432674408 0.17595000565052032 0.5
O796 O 0.3333333432674408 0.17595000565052032 0.75
O797 O 0.3333333432674408 0.6759499907493591 0.0
O798 O 0.3333333432674408 0.6759499907493591 0.25
O799 O 0.3333333432674408 0.6759499907493591 0.5
O800 O 0.3333333432674408 0.6759499907493591 0.75
O801 O 0.6666666865348816 0.17595000565052032 0.0
O802 O 0.6666666865348816 0.17595000565052032 0.25
O803 O 0.6666666865348816 0.17595000565052032 0.5
O804 O 0.6666666865348816 0.17595000565052032 0.75
O805 O 0.6666666865348816 0.6759499907493591 0.0
O806 O 0.6666666865348816 0.6759499907493591 0.25
O807 O 0.6666666865348816 0.6759499907493591 0.5
O808 O 0.6666666865348816 0.6759499907493591 0.75
O809 O 1.0 0.17595000565052032 0.0
O810 O 1.0 0.17595000565052032 0.25
O811 O 1.0 0.17595000565052032 0.5
O812 O 1.0 0.17595000565052032 0.75
O813 O 1.0 0.6759499907493591 0.0
O814 O 1.0 0.6759499907493591 0.25
O815 O 1.0 0.6759499907493591 0.5
O816 O 1.0 0.6759499907493591 0.75
O817 O 0.3333333432674408 0.32405000925064087 0.0
O818 O 0.3333333432674408 0.32405000925064087 0.25
O819 O 0.3333333432674408 0.32405000925064087 0.5
O820 O 0.3333333432674408 0.32405000925064087 0.75
O821 O 0.3333333432674408 0.8240500092506409 0.0
O822 O 0.3333333432674408 0.8240500092506409 0.25
O823 O 0.3333333432674408 0.8240500092506409 0.5
O824 O 0.3333333432674408 0.8240500092506409 0.75
O825 O 0.6666666865348816 0.32405000925064087 0.0
O826 O 0.6666666865348816 0.32405000925064087 0.25
O827 O 0.6666666865348816 0.32405000925064087 0.5
O828 O 0.6666666865348816 0.32405000925064087 0.75
O829 O 0.6666666865348816 0.8240500092506409 0.0
O830 O 0.6666666865348816 0.8240500092506409 0.25
O831 O 0.6666666865348816 0.8240500092506409 0.5
O832 O 0.6666666865348816 0.8240500092506409 0.75
O833 O 1.0 0.32405000925064087 0.0
O834 O 1.0 0.32405000925064087 0.25
O835 O 1.0 0.32405000925064087 0.5
O836 O 1.0 0.32405000925064087 0.75
O837 O 1.0 0.8240500092506409 0.0
O838 O 1.0 0.8240500092506409 0.25
O839 O 1.0 0.8240500092506409 0.5
O840 O 1.0 0.8240500092506409 0.75
O841 O 0.3333333432674408 0.39675000309944153 0.125
O842 O 0.3333333432674408 0.39675000309944153 0.375
O843 O 0.3333333432674408 0.39675000309944153 0.625
O844 O 0.3333333432674408 0.39675000309944153 0.875
O845 O 0.3333333432674408 0.8967499732971191 0.125
O846 O 0.3333333432674408 0.8967499732971191 0.375
O847 O 0.3333333432674408 0.8967499732971191 0.625
O848 O 0.3333333432674408 0.8967499732971191 0.875
O849 O 0.6666666865348816 0.39675000309944153 0.125
O850 O 0.6666666865348816 0.39675000309944153 0.375
O851 O 0.6666666865348816 0.39675000309944153 0.625
O852 O 0.6666666865348816 0.39675000309944153 0.875
O853 O 0.6666666865348816 0.8967499732971191 0.125
O854 O 0.6666666865348816 0.8967499732971191 0.375
O855 O 0.6666666865348816 0.8967499732971191 0.625
O856 O 0.6666666865348816 0.8967499732971191 0.875
O857 O 1.0 0.39675000309944153 0.125
O858 O 1.0 0.39675000309944153 0.375
O859 O 1.0 0.39675000309944153 0.625
O860 O 1.0 0.39675000309944153 0.875
O861 O 1.0 0.8967499732971191 0.125
O862 O 1.0 0.8967499732971191 0.375
O863 O 1.0 0.8967499732971191 0.625
O864 O 1.0 0.8967499732971191 0.875
Si865 Si 0.048366665840148926 0.19220000505447388 0.2446500062942505
Si866 Si 0.048366665840148926 0.19220000505447388 0.4946500062942505
Si867 Si 0.048366665840148926 0.19220000505447388 0.7446500062942505
Si868 Si 0.048366665840148926 0.19220000505447388 0.9946500062942505
Si869 Si 0.048366665840148926 0.6922000050544739 0.2446500062942505
Si870 Si 0.048366665840148926 0.6922000050544739 0.4946500062942505
Si871 Si 0.048366665840148926 0.6922000050544739 0.7446500062942505
Si872 Si 0.048366665840148926 0.6922000050544739 0.9946500062942505
Si873 Si 0.3817000091075897 0.19220000505447388 0.2446500062942505
Si874 Si 0.3817000091075897 0.19220000505447388 0.4946500062942505
Si875 Si 0.3817000091075897 0.19220000505447388 0.7446500062942505
Si876 Si 0.3817000091075897 0.19220000505447388 0.9946500062942505
Si877 Si 0.3817000091075897 0.6922000050544739 0.2446500062942505
Si878 Si 0.3817000091075897 0.6922000050544739 0.4946500062942505
Si879 Si 0.3817000091075897 0.6922000050544739 0.7446500062942505
Si880 Si 0.3817000091075897 0.6922000050544739 0.9946500062942505
Si881 Si 0.7150333523750305 0.19220000505447388 0.2446500062942505
Si882 Si 0.7150333523750305 0.19220000505447388 0.4946500062942505
Si883 Si 0.7150333523750305 0.19220000505447388 0.7446500062942505
Si884 Si 0.7150333523750305 0.19220000505447388 0.9946500062942505
Si885 Si 0.7150333523750305 0.6922000050544739 0.2446500062942505
Si886 Si 0.7150333523750305 0.6922000050544739 0.4946500062942505
Si887 Si 0.7150333523750305 0.6922000050544739 0.7446500062942505
Si888 Si 0.7150333523750305 0.6922000050544739 0.9946500062942505
Si889 Si 0.048366665840148926 0.3077999949455261 0.2446500062942505
Si890 Si 0.048366665840148926 0.3077999949455261 0.4946500062942505
Si891 Si 0.048366665840148926 0.3077999949455261 0.7446500062942505
Si892 Si 0.048366665840148926 0.3077999949455261 0.9946500062942505
Si893 Si 0.048366665840148926 0.8077999949455261 0.2446500062942505
Si894 Si 0.048366665840148926 0.8077999949455261 0.4946500062942505
Si895 Si 0.048366665840148926 0.8077999949455261 0.7446500062942505
Si896 Si 0.048366665840148926 0.8077999949455261 0.9946500062942505
Si897 Si 0.3817000091075897 0.3077999949455261 0.2446500062942505
Si898 Si 0.3817000091075897 0.3077999949455261 0.4946500062942505
Si899 Si 0.3817000091075897 0.3077999949455261 0.7446500062942505
Si900 Si 0.3817000091075897 0.3077999949455261 0.9946500062942505
Si901 Si 0.3817000091075897 0.8077999949455261 0.2446500062942505
Si902 Si 0.3817000091075897 0.8077999949455261 0.4946500062942505
Si903 Si 0.3817000091075897 0.8077999949455261 0.7446500062942505
Si904 Si 0.3817000091075897 0.8077999949455261 0.9946500062942505
Si905 Si 0.7150333523750305 0.3077999949455261 0.2446500062942505
Si906 Si 0.7150333523750305 0.3077999949455261 0.4946500062942505
Si907 Si 0.7150333523750305 0.3077999949455261 0.7446500062942505
Si908 Si 0.7150333523750305 0.3077999949455261 0.9946500062942505
Si909 Si 0.7150333523750305 0.8077999949455261 0.2446500062942505
Si910 Si 0.7150333523750305 0.8077999949455261 0.4946500062942505
Si911 Si 0.7150333523750305 0.8077999949455261 0.7446500062942505
Si912 Si 0.7150333523750305 0.8077999949455261 0.9946500062942505
Si913 Si 0.05296666547656059 0.11685000360012054 0.16155000030994415
Si914 Si 0.05296666547656059 0.11685000360012054 0.41154998540878296
Si915 Si 0.05296666547656059 0.11685000360012054 0.661549985408783
Si916 Si 0.05296666547656059 0.11685000360012054 0.911549985408783
Si917 Si 0.05296666547656059 0.6168500185012817 0.16155000030994415
Si918 Si 0.05296666547656059 0.6168500185012817 0.41154998540878296
Si919 Si 0.05296666547656059 0.6168500185012817 0.661549985408783
Si920 Si 0.05296666547656059 0.6168500185012817 0.911549985408783
Si921 Si 0.3862999975681305 0.11685000360012054 0.16155000030994415
Si922 Si 0.3862999975681305 0.11685000360012054 0.41154998540878296
Si923 Si 0.3862999975681305 0.11685000360012054 0.661549985408783
Si924 Si 0.3862999975681305 0.11685000360012054 0.911549985408783
Si925 Si 0.3862999975681305 0.6168500185012817 0.16155000030994415
Si926 Si 0.3862999975681305 0.6168500185012817 0.41154998540878296
Si927 Si 0.3862999975681305 0.6168500185012817 0.661549985408783
Si928 Si 0.3862999975681305 0.6168500185012817 0.911549985408783
Si929 Si 0.7196333408355713 0.11685000360012054 0.16155000030994415
Si930 Si 0.7196333408355713 0.11685000360012054 0.41154998540878296
Si931 Si 0.7196333408355713 0.11685000360012054 0.661549985408783
Si932 Si 0.7196333408355713 0.11685000360012054 0.911549985408783
Si933 Si 0.7196333408355713 0.6168500185012817 0.16155000030994415
Si934 Si 0.7196333408355713 0.6168500185012817 0.41154998540878296
Si935 Si 0.7196333408355713 0.6168500185012817 0.661549985408783
Si936 Si 0.7196333408355713 0.6168500185012817 0.911549985408783
Si937 Si 0.05296666547656059 0.38315001130104065 0.16155000030994415
Si938 Si 0.05296666547656059 0.38315001130104065 0.41154998540878296
Si939 Si 0.05296666547656059 0.38315001130104065 0.661549985408783
Si940 Si 0.05296666547656059 0.38315001130104065 0.911549985408783
Si941 Si 0.05296666547656059 0.8831499814987183 0.16155000030994415
Si942 Si 0.05296666547656059 0.8831499814987183 0.41154998540878296
Si943 Si 0.05296666547656059 0.8831499814987183 0.661549985408783
Si944 Si 0.05296666547656059 0.8831499814987183 0.911549985408783
Si945 Si 0.3862999975681305 0.38315001130104065 0.16155000030994415
Si946 Si 0.3862999975681305 0.38315001130104065 0.41154998540878296
Si947 Si 0.3862999975681305 0.38315001130104065 0.661549985408783
Si948 Si 0.3862999975681305 0.38315001130104065 0.911549985408783
Si949 Si 0.3862999975681305 0.8831499814987183 0.16155000030994415
Si950 Si 0.3862999975681305 0.8831499814987183 0.41154998540878296
Si951 Si 0.3862999975681305 0.8831499814987183 0.661549985408783
Si952 Si 0.3862999975681305 0.8831499814987183 0.911549985408783
Si953 Si 0.7196333408355713 0.38315001130104065 0.16155000030994415
Si954 Si 0.7196333408355713 0.38315001130104065 0.41154998540878296
Si955 Si 0.7196333408355713 0.38315001130104065 0.661549985408783
Si956 Si 0.7196333408355713 0.38315001130104065 0.911549985408783
Si957 Si 0.7196333408355713 0.8831499814987183 0.16155000030994415
Si958 Si 0.7196333408355713 0.8831499814987183 0.41154998540878296
Si959 Si 0.7196333408355713 0.8831499814987183 0.661549985408783
Si960 Si 0.7196333408355713 0.8831499814987183 0.911549985408783
Si961 Si 0.1137000024318695 0.13314999639987946 0.08844999969005585
Si962 Si 0.1137000024318695 0.13314999639987946 0.33845001459121704
Si963 Si 0.1137000024318695 0.13314999639987946 0.588450014591217
Si964 Si 0.1137000024318695 0.13314999639987946 0.838450014591217
Si965 Si 0.1137000024318695 0.6331499814987183 0.08844999969005585
Si966 Si 0.1137000024318695 0.6331499814987183 0.33845001459121704
Si967 Si 0.1137000024318695 0.6331499814987183 0.588450014591217
Si968 Si 0.1137000024318695 0.6331499814987183 0.838450014591217
Si969 Si 0.4470333158969879 0.13314999639987946 0.08844999969005585
Si970 Si 0.4470333158969879 0.13314999639987946 0.33845001459121704
Si971 Si 0.4470333158969879 0.13314999639987946 0.588450014591217
Si972 Si 0.4470333158969879 0.13314999639987946 0.838450014591217
Si973 Si 0.4470333158969879 0.6331499814987183 0.08844999969005585
Si974 Si 0.4470333158969879 0.6331499814987183 0.33845001459121704
Si975 Si 0.4470333158969879 0.6331499814987183 0.588450014591217
Si976 Si 0.4470333158969879 0.6331499814987183 0.838450014591217
Si977 Si 0.7803666591644287 0.13314999639987946 0.08844999969005585
Si978 Si 0.7803666591644287 0.13314999639987946 0.33845001459121704
Si979 Si 0.7803666591644287 0.13314999639987946 0.588450014591217
Si980 Si 0.7803666591644287 0.13314999639987946 0.838450014591217
Si981 Si 0.7803666591644287 0.6331499814987183 0.08844999969005585
Si982 Si 0.7803666591644287 0.6331499814987183 0.33845001459121704
Si983 Si 0.7803666591644287 0.6331499814987183 0.588450014591217
Si984 Si 0.7803666591644287 0.6331499814987183 0.838450014591217
Si985 Si 0.1137000024318695 0.36684998869895935 0.08844999969005585
Si986 Si 0.1137000024318695 0.36684998869895935 0.33845001459121704
Si987 Si 0.1137000024318695 0.36684998869895935 0.588450014591217
Si988 Si 0.1137000024318695 0.36684998869895935 0.838450014591217
Si989 Si 0.1137000024318695 0.8668500185012817 0.08844999969005585
Si990 Si 0.1137000024318695 0.8668500185012817 0.33845001459121704
Si991 Si 0.1137000024318695 0.8668500185012817 0.588450014591217
Si992 Si 0.1137000024318695 0.8668500185012817 0.838450014591217
Si993 Si 0.4470333158969879 0.36684998869895935 0.08844999969005585
Si994 Si 0.4470333158969879 0.36684998869895935 0.33845001459121704
Si995 Si 0.4470333158969879 0.36684998869895935 0.588450014591217
Si996 Si 0.4470333158969879 0.36684998869895935 0.838450014591217
Si997 Si 0.4470333158969879 0.8668500185012817 0.08844999969005585
Si998 Si 0.4470333158969879 0.8668500185012817 0.33845001459121704
Si999 Si 0.4470333158969879 0.8668500185012817 0.588450014591217
Si1000 Si 0.4470333158969879 0.8668500185012817 0.838450014591217
Si1001 Si 0.7803666591644287 0.36684998869895935 0.08844999969005585
Si1002 Si 0.7803666591644287 0.36684998869895935 0.33845001459121704
Si1003 Si 0.7803666591644287 0.36684998869895935 0.588450014591217
Si1004 Si 0.7803666591644287 0.36684998869895935 0.838450014591217
Si1005 Si 0.7803666591644287 0.8668500185012817 0.08844999969005585
Si1006 Si 0.7803666591644287 0.8668500185012817 0.33845001459121704
Si1007 Si 0.7803666591644287 0.8668500185012817 0.588450014591217
Si1008 Si 0.7803666591644287 0.8668500185012817 0.838450014591217
Si1009 Si 0.11829999834299088 0.05779999867081642 0.005350000225007534
Si1010 Si 0.11829999834299088 0.05779999867081642 0.2553499937057495
Si1011 Si 0.11829999834299088 0.05779999867081642 0.5053499937057495
Si1012 Si 0.11829999834299088 0.05779999867081642 0.7553499937057495
Si1013 Si 0.11829999834299088 0.5577999949455261 0.005350000225007534
Si1014 Si 0.11829999834299088 0.5577999949455261 0.2553499937057495
Si1015 Si 0.11829999834299088 0.5577999949455261 0.5053499937057495
Si1016 Si 0.11829999834299088 0.5577999949455261 0.7553499937057495
Si1017 Si 0.4516333341598511 0.05779999867081642 0.005350000225007534
Si1018 Si 0.4516333341598511 0.05779999867081642 0.2553499937057495
Si1019 Si 0.4516333341598511 0.05779999867081642 0.5053499937057495
Si1020 Si 0.4516333341598511 0.05779999867081642 0.7553499937057495
Si1021 Si 0.4516333341598511 0.5577999949455261 0.005350000225007534
Si1022 Si 0.4516333341598511 0.5577999949455261 0.2553499937057495
Si1023 Si 0.4516333341598511 0.5577999949455261 0.5053499937057495
Si1024 Si 0.4516333341598511 0.5577999949455261 0.7553499937057495
Si1025 Si 0.7849666476249695 0.05779999867081642 0.005350000225007534
Si1026 Si 0.7849666476249695 0.05779999867081642 0.2553499937057495
Si1027 Si 0.7849666476249695 0.05779999867081642 0.5053499937057495
Si1028 Si 0.7849666476249695 0.05779999867081642 0.7553499937057495
Si1029 Si 0.7849666476249695 0.5577999949455261 0.005350000225007534
Si1030 Si 0.7849666476249695 0.5577999949455261 0.2553499937057495
Si1031 Si 0.7849666476249695 0.5577999949455261 0.5053499937057495
Si1032 Si 0.7849666476249695 0.5577999949455261 0.7553499937057495
Si1033 Si 0.11829999834299088 0.4422000050544739 0.005350000225007534
Si1034 Si 0.11829999834299088 0.4422000050544739 0.2553499937057495
Si1035 Si 0.11829999834299088 0.4422000050544739 0.5053499937057495
Si1036 Si 0.11829999834299088 0.4422000050544739 0.7553499937057495
Si1037 Si 0.11829999834299088 0.9422000050544739 0.005350000225007534
Si1038 Si 0.11829999834299088 0.9422000050544739 0.2553499937057495
Si1039 Si 0.11829999834299088 0.9422000050544739 0.5053499937057495
Si1040 Si 0.11829999834299088 0.9422000050544739 0.7553499937057495
Si1041 Si 0.4516333341598511 0.4422000050544739 0.005350000225007534
Si1042 Si 0.4516333341598511 0.4422000050544739 0.2553499937057495
Si1043 Si 0.4516333341598511 0.4422000050544739 0.5053499937057495
Si1044 Si 0.4516333341598511 0.4422000050544739 0.7553499937057495
Si1045 Si 0.4516333341598511 0.9422000050544739 0.005350000225007534
Si1046 Si 0.4516333341598511 0.9422000050544739 0.2553499937057495
Si1047 Si 0.4516333341598511 0.9422000050544739 0.5053499937057495
Si1048 Si 0.4516333341598511 0.9422000050544739 0.7553499937057495
Si1049 Si 0.7849666476249695 0.4422000050544739 0.005350000225007534
Si1050 Si 0.7849666476249695 0.4422000050544739 0.2553499937057495
Si1051 Si 0.7849666476249695 0.4422000050544739 0.5053499937057495
Si1052 Si 0.7849666476249695 0.4422000050544739 0.7553499937057495
Si1053 Si 0.7849666476249695 0.9422000050544739 0.005350000225007534
Si1054 Si 0.7849666476249695 0.9422000050544739 0.2553499937057495
Si1055 Si 0.7849666476249695 0.9422000050544739 0.5053499937057495
Si1056 Si 0.7849666476249695 0.9422000050544739 0.7553499937057495
Si1057 Si 0.21503333747386932 0.05779999867081642 0.2446500062942505
Si1058 Si 0.21503333747386932 0.05779999867081642 0.4946500062942505
Si1059 Si 0.21503333747386932 0.05779999867081642 0.7446500062942505
Si1060 Si 0.21503333747386932 0.05779999867081642 0.9946500062942505
Si1061 Si 0.21503333747386932 0.5577999949455261 0.2446500062942505
Si1062 Si 0.21503333747386932 0.5577999949455261 0.4946500062942505
Si1063 Si 0.21503333747386932 0.5577999949455261 0.7446500062942505
Si1064 Si 0.21503333747386932 0.5577999949455261 0.9946500062942505
Si1065 Si 0.5483666658401489 0.05779999867081642 0.2446500062942505
Si1066 Si 0.5483666658401489 0.05779999867081642 0.4946500062942505
Si1067 Si 0.5483666658401489 0.05779999867081642 0.7446500062942505
Si1068 Si 0.5483666658401489 0.05779999867081642 0.9946500062942505
Si1069 Si 0.5483666658401489 0.5577999949455261 0.2446500062942505
Si1070 Si 0.5483666658401489 0.5577999949455261 0.4946500062942505
Si1071 Si 0.5483666658401489 0.5577999949455261 0.7446500062942505
Si1072 Si 0.5483666658401489 0.5577999949455261 0.9946500062942505
Si1073 Si 0.8817000389099121 0.05779999867081642 0.2446500062942505
Si1074 Si 0.8817000389099121 0.05779999867081642 0.4946500062942505
Si1075 Si 0.8817000389099121 0.05779999867081642 0.7446500062942505
Si1076 Si 0.8817000389099121 0.05779999867081642 0.9946500062942505
Si1077 Si 0.8817000389099121 0.5577999949455261 0.2446500062942505
Si1078 Si 0.8817000389099121 0.5577999949455261 0.4946500062942505
Si1079 Si 0.8817000389099121 0.5577999949455261 0.7446500062942505
Si1080 Si 0.8817000389099121 0.5577999949455261 0.9946500062942505
Si1081 Si 0.21503333747386932 0.4422000050544739 0.2446500062942505
Si1082 Si 0.21503333747386932 0.4422000050544739 0.4946500062942505
Si1083 Si 0.21503333747386932 0.4422000050544739 0.7446500062942505
Si1084 Si 0.21503333747386932 0.4422000050544739 0.9946500062942505
Si1085 Si 0.21503333747386932 0.9422000050544739 0.2446500062942505
Si1086 Si 0.21503333747386932 0.9422000050544739 0.4946500062942505
Si1087 Si 0.21503333747386932 0.9422000050544739 0.7446500062942505
Si1088 Si 0.21503333747386932 0.9422000050544739 0.9946500062942505
Si1089 Si 0.5483666658401489 0.4422000050544739 0.2446500062942505
Si1090 Si 0.5483666658401489 0.4422000050544739 0.4946500062942505
Si1091 Si 0.5483666658401489 0.4422000050544739 0.7446500062942505
Si1092 Si 0.5483666658401489 0.4422000050544739 0.9946500062942505
Si1093 Si 0.5483666658401489 0.9422000050544739 0.2446500062942505
Si1094 Si 0.5483666658401489 0.9422000050544739 0.4946500062942505
Si1095 Si 0.5483666658401489 0.9422000050544739 0.7446500062942505
Si1096 Si 0.5483666658401489 0.9422000050544739 0.9946500062942505
Si1097 Si 0.8817000389099121 0.4422000050544739 0.2446500062942505
Si1098 Si 0.8817000389099121 0.4422000050544739 0.4946500062942505
Si1099 Si 0.8817000389099121 0.4422000050544739 0.7446500062942505
Si1100 Si 0.8817000389099121 0.4422000050544739 0.9946500062942505
Si1101 Si 0.8817000389099121 0.9422000050544739 0.2446500062942505
Si1102 Si 0.8817000389099121 0.9422000050544739 0.4946500062942505
Si1103 Si 0.8817000389099121 0.9422000050544739 0.7446500062942505
Si1104 Si 0.8817000389099121 0.9422000050544739 0.9946500062942505
Si1105 Si 0.2196333408355713 0.13314999639987946 0.16155000030994415
Si1106 Si 0.2196333408355713 0.13314999639987946 0.41154998540878296
Si1107 Si 0.2196333408355713 0.13314999639987946 0.661549985408783
Si1108 Si 0.2196333408355713 0.13314999639987946 0.911549985408783
Si1109 Si 0.2196333408355713 0.6331499814987183 0.16155000030994415
Si1110 Si 0.2196333408355713 0.6331499814987183 0.41154998540878296
Si1111 Si 0.2196333408355713 0.6331499814987183 0.661549985408783
Si1112 Si 0.2196333408355713 0.6331499814987183 0.911549985408783
Si1113 Si 0.5529666543006897 0.13314999639987946 0.16155000030994415
Si1114 Si 0.5529666543006897 0.13314999639987946 0.41154998540878296
Si1115 Si 0.5529666543006897 0.13314999639987946 0.661549985408783
Si1116 Si 0.5529666543006897 0.13314999639987946 0.911549985408783
Si1117 Si 0.5529666543006897 0.6331499814987183 0.16155000030994415
Si1118 Si 0.5529666543006897 0.6331499814987183 0.41154998540878296
Si1119 Si 0.5529666543006897 0.6331499814987183 0.661549985408783
Si1120 Si 0.5529666543006897 0.6331499814987183 0.911549985408783
Si1121 Si 0.8863000273704529 0.13314999639987946 0.16155000030994415
Si1122 Si 0.8863000273704529 0.13314999639987946 0.41154998540878296
Si1123 Si 0.8863000273704529 0.13314999639987946 0.661549985408783
Si1124 Si 0.8863000273704529 0.13314999639987946 0.911549985408783
Si1125 Si 0.8863000273704529 0.6331499814987183 0.16155000030994415
Si1126 Si 0.8863000273704529 0.6331499814987183 0.41154998540878296
Si1127 Si 0.8863000273704529 0.6331499814987183 0.661549985408783
Si1128 Si 0.8863000273704529 0.6331499814987183 0.911549985408783
Si1129 Si 0.2196333408355713 0.36684998869895935 0.16155000030994415
Si1130 Si 0.2196333408355713 0.36684998869895935 0.41154998540878296
Si1131 Si 0.2196333408355713 0.36684998869895935 0.661549985408783
Si1132 Si 0.2196333408355713 0.36684998869895935 0.911549985408783
Si1133 Si 0.2196333408355713 0.8668500185012817 0.16155000030994415
Si1134 Si 0.2196333408355713 0.8668500185012817 0.41154998540878296
Si1135 Si 0.2196333408355713 0.8668500185012817 0.661549985408783
Si1136 Si 0.2196333408355713 0.8668500185012817 0.911549985408783
Si1137 Si 0.5529666543006897 0.36684998869895935 0.16155000030994415
Si1138 Si 0.5529666543006897 0.36684998869895935 0.41154998540878296
Si1139 Si 0.5529666543006897 0.36684998869895935 0.661549985408783
Si1140 Si 0.5529666543006897 0.36684998869895935 0.911549985408783
Si1141 Si 0.5529666543006897 0.8668500185012817 0.16155000030994415
Si1142 Si 0.5529666543006897 0.8668500185012817 0.41154998540878296
Si1143 Si 0.5529666543006897 0.8668500185012817 0.661549985408783
Si1144 Si 0.5529666543006897 0.8668500185012817 0.911549985408783
Si1145 Si 0.8863000273704529 0.36684998869895935 0.16155000030994415
Si1146 Si 0.8863000273704529 0.36684998869895935 0.41154998540878296
Si1147 Si 0.8863000273704529 0.36684998869895935 0.661549985408783
Si1148 Si 0.8863000273704529 0.36684998869895935 0.911549985408783
Si1149 Si 0.8863000273704529 0.8668500185012817 0.16155000030994415
Si1150 Si 0.8863000273704529 0.8668500185012817 0.41154998540878296
Si1151 Si 0.8863000273704529 0.8668500185012817 0.661549985408783
Si1152 Si 0.8863000273704529 0.8668500185012817 0.911549985408783
Si1153 Si 0.2803666591644287 0.11685000360012054 0.08844999969005585
Si1154 Si 0.2803666591644287 0.11685000360012054 0.33845001459121704
Si1155 Si 0.2803666591644287 0.11685000360012054 0.588450014591217
Si1156 Si 0.2803666591644287 0.11685000360012054 0.838450014591217
Si1157 Si 0.2803666591644287 0.6168500185012817 0.08844999969005585
Si1158 Si 0.2803666591644287 0.6168500185012817 0.33845001459121704
Si1159 Si 0.2803666591644287 0.6168500185012817 0.588450014591217
Si1160 Si 0.2803666591644287 0.6168500185012817 0.838450014591217
Si1161 Si 0.6136999726295471 0.11685000360012054 0.08844999969005585
Si1162 Si 0.6136999726295471 0.11685000360012054 0.33845001459121704
Si1163 Si 0.6136999726295471 0.11685000360012054 0.588450014591217
Si1164 Si 0.6136999726295471 0.11685000360012054 0.838450014591217
Si1165 Si 0.6136999726295471 0.6168500185012817 0.08844999969005585
Si1166 Si 0.6136999726295471 0.6168500185012817 0.33845001459121704
Si1167 Si 0.6136999726295471 0.6168500185012817 0.588450014591217
Si1168 Si 0.6136999726295471 0.6168500185012817 0.838450014591217
Si1169 Si 0.9470333456993103 0.11685000360012054 0.08844999969005585
Si1170 Si 0.9470333456993103 0.11685000360012054 0.33845001459121704
Si1171 Si 0.9470333456993103 0.11685000360012054 0.588450014591217
Si1172 Si 0.9470333456993103 0.11685000360012054 0.838450014591217
Si1173 Si 0.9470333456993103 0.6168500185012817 0.08844999969005585
Si1174 Si 0.9470333456993103 0.6168500185012817 0.33845001459121704
Si1175 Si 0.9470333456993103 0.6168500185012817 0.588450014591217
Si1176 Si 0.9470333456993103 0.6168500185012817 0.838450014591217
Si1177 Si 0.2803666591644287 0.38315001130104065 0.08844999969005585
Si1178 Si 0.2803666591644287 0.38315001130104065 0.33845001459121704
Si1179 Si 0.2803666591644287 0.38315001130104065 0.588450014591217
Si1180 Si 0.2803666591644287 0.38315001130104065 0.838450014591217
Si1181 Si 0.2803666591644287 0.8831499814987183 0.08844999969005585
Si1182 Si 0.2803666591644287 0.8831499814987183 0.33845001459121704
Si1183 Si 0.2803666591644287 0.8831499814987183 0.588450014591217
Si1184 Si 0.2803666591644287 0.8831499814987183 0.838450014591217
Si1185 Si 0.6136999726295471 0.38315001130104065 0.08844999969005585
Si1186 Si 0.6136999726295471 0.38315001130104065 0.33845001459121704
Si1187 Si 0.6136999726295471 0.38315001130104065 0.588450014591217
Si1188 Si 0.6136999726295471 0.38315001130104065 0.838450014591217
Si1189 Si 0.6136999726295471 0.8831499814987183 0.08844999969005585
Si1190 Si 0.6136999726295471 0.8831499814987183 0.33845001459121704
Si1191 Si 0.6136999726295471 0.8831499814987183 0.588450014591217
Si1192 Si 0.6136999726295471 0.8831499814987183 0.838450014591217
Si1193 Si 0.9470333456993103 0.38315001130104065 0.08844999969005585
Si1194 Si 0.9470333456993103 0.38315001130104065 0.33845001459121704
Si1195 Si 0.9470333456993103 0.38315001130104065 0.588450014591217
Si1196 Si 0.9470333456993103 0.38315001130104065 0.838450014591217
Si1197 Si 0.9470333456993103 0.8831499814987183 0.08844999969005585
Si1198 Si 0.9470333456993103 0.8831499814987183 0.33845001459121704
Si1199 Si 0.9470333456993103 0.8831499814987183 0.588450014591217
Si1200 Si 0.9470333456993103 0.8831499814987183 0.838450014591217
Si1201 Si 0.28496667742729187 0.19220000505447388 0.005350000225007534
Si1202 Si 0.28496667742729187 0.19220000505447388 0.2553499937057495
Si1203 Si 0.28496667742729187 0.19220000505447388 0.5053499937057495
Si1204 Si 0.28496667742729187 0.19220000505447388 0.7553499937057495
Si1205 Si 0.28496667742729187 0.6922000050544739 0.005350000225007534
Si1206 Si 0.28496667742729187 0.6922000050544739 0.2553499937057495
Si1207 Si 0.28496667742729187 0.6922000050544739 0.5053499937057495
Si1208 Si 0.28496667742729187 0.6922000050544739 0.7553499937057495
Si1209 Si 0.6183000206947327 0.19220000505447388 0.005350000225007534
Si1210 Si 0.6183000206947327 0.19220000505447388 0.2553499937057495
Si1211 Si 0.6183000206947327 0.19220000505447388 0.5053499937057495
Si1212 Si 0.6183000206947327 0.19220000505447388 0.7553499937057495
Si1213 Si 0.6183000206947327 0.6922000050544739 0.005350000225007534
Si1214 Si 0.6183000206947327 0.6922000050544739 0.2553499937057495
Si1215 Si 0.6183000206947327 0.6922000050544739 0.5053499937057495
Si1216 Si 0.6183000206947327 0.6922000050544739 0.7553499937057495
Si1217 Si 0.9516332745552063 0.19220000505447388 0.005350000225007534
Si1218 Si 0.9516332745552063 0.19220000505447388 0.2553499937057495
Si1219 Si 0.9516332745552063 0.19220000505447388 0.5053499937057495
Si1220 Si 0.9516332745552063 0.19220000505447388 0.7553499937057495
Si1221 Si 0.9516332745552063 0.6922000050544739 0.005350000225007534
Si1222 Si 0.9516332745552063 0.6922000050544739 0.2553499937057495
Si1223 Si 0.9516332745552063 0.6922000050544739 0.5053499937057495
Si1224 Si 0.9516332745552063 0.6922000050544739 0.7553499937057495
Si1225 Si 0.28496667742729187 0.3077999949455261 0.005350000225007534
Si1226 Si 0.28496667742729187 0.3077999949455261 0.2553499937057495
Si1227 Si 0.28496667742729187 0.3077999949455261 0.5053499937057495
Si1228 Si 0.28496667742729187 0.3077999949455261 0.7553499937057495
Si1229 Si 0.28496667742729187 0.8077999949455261 0.005350000225007534
Si1230 Si 0.28496667742729187 0.8077999949455261 0.2553499937057495
Si1231 Si 0.28496667742729187 0.8077999949455261 0.5053499937057495
Si1232 Si 0.28496667742729187 0.8077999949455261 0.7553499937057495
Si1233 Si 0.6183000206947327 0.3077999949455261 0.005350000225007534
Si1234 Si 0.6183000206947327 0.3077999949455261 0.2553499937057495
Si1235 Si 0.6183000206947327 0.3077999949455261 0.5053499937057495
Si1236 Si 0.6183000206947327 0.3077999949455261 0.7553499937057495
Si1237 Si 0.6183000206947327 0.8077999949455261 0.005350000225007534
Si1238 Si 0.6183000206947327 0.8077999949455261 0.2553499937057495
Si1239 Si 0.6183000206947327 0.8077999949455261 0.5053499937057495
Si1240 Si 0.6183000206947327 0.8077999949455261 0.7553499937057495
Si1241 Si 0.9516332745552063 0.3077999949455261 0.005350000225007534
Si1242 Si 0.9516332745552063 0.3077999949455261 0.2553499937057495
Si1243 Si 0.9516332745552063 0.3077999949455261 0.5053499937057495
Si1244 Si 0.9516332745552063 0.3077999949455261 0.7553499937057495
Si1245 Si 0.9516332745552063 0.8077999949455261 0.005350000225007534
Si1246 Si 0.9516332745552063 0.8077999949455261 0.2553499937057495
Si1247 Si 0.9516332745552063 0.8077999949455261 0.5053499937057495
Si1248 Si 0.9516332745552063 0.8077999949455261 0.7553499937057495
