data_image0
_symmetry_space_group_name_H-M    "P 1"
_symmetry_int_tables_number       1

loop_
 _symmetry_equiv_pos_as_xyz
 'x, y, z'

_cell_length_a	27.672
_cell_length_b	29.74
_cell_length_c	34.472
_cell_angle_alpha	90.0000
_cell_angle_beta	90.0000
_cell_angle_gamma	90.0000

loop_
 _atom_site_label
 _atom_site_type_symbol
 _atom_site_fract_x
 _atom_site_fract_y
 _atom_site_fract_z
O1 O 0.01732500083744526 0.05894999951124191 0.2561500072479248
O2 O 0.01732500083744526 0.05894999951124191 0.7561500072479248
O3 O 0.01732500083744526 0.5589500069618225 0.2561500072479248
O4 O 0.01732500083744526 0.5589500069618225 0.7561500072479248
O5 O 0.2673250138759613 0.05894999951124191 0.2561500072479248
O6 O 0.2673250138759613 0.05894999951124191 0.7561500072479248
O7 O 0.2673250138759613 0.5589500069618225 0.2561500072479248
O8 O 0.2673250138759613 0.5589500069618225 0.7561500072479248
O9 O 0.5173249840736389 0.05894999951124191 0.2561500072479248
O10 O 0.5173249840736389 0.05894999951124191 0.7561500072479248
O11 O 0.5173249840736389 0.5589500069618225 0.2561500072479248
O12 O 0.5173249840736389 0.5589500069618225 0.7561500072479248
O13 O 0.7673249840736389 0.05894999951124191 0.2561500072479248
O14 O 0.7673249840736389 0.05894999951124191 0.7561500072479248
O15 O 0.7673249840736389 0.5589500069618225 0.2561500072479248
O16 O 0.7673249840736389 0.5589500069618225 0.7561500072479248
O17 O 0.01732500083744526 0.05894999951124191 0.4938499927520752
O18 O 0.01732500083744526 0.05894999951124191 0.9938499927520752
O19 O 0.01732500083744526 0.5589500069618225 0.4938499927520752
O20 O 0.01732500083744526 0.5589500069618225 0.9938499927520752
O21 O 0.2673250138759613 0.05894999951124191 0.4938499927520752
O22 O 0.2673250138759613 0.05894999951124191 0.9938499927520752
O23 O 0.2673250138759613 0.5589500069618225 0.4938499927520752
O24 O 0.2673250138759613 0.5589500069618225 0.9938499927520752
O25 O 0.5173249840736389 0.05894999951124191 0.4938499927520752
O26 O 0.5173249840736389 0.05894999951124191 0.9938499927520752
O27 O 0.5173249840736389 0.5589500069618225 0.4938499927520752
O28 O 0.5173249840736389 0.5589500069618225 0.9938499927520752
O29 O 0.7673249840736389 0.05894999951124191 0.4938499927520752
O30 O 0.7673249840736389 0.05894999951124191 0.9938499927520752
O31 O 0.7673249840736389 0.5589500069618225 0.4938499927520752
O32 O 0.7673249840736389 0.5589500069618225 0.9938499927520752
O33 O 0.01732500083744526 0.1910499930381775 0.006149999797344208
O34 O 0.01732500083744526 0.1910499930381775 0.5061500072479248
O35 O 0.01732500083744526 0.6910499930381775 0.006149999797344208
O36 O 0.01732500083744526 0.6910499930381775 0.5061500072479248
O37 O 0.2673250138759613 0.1910499930381775 0.006149999797344208
O38 O 0.2673250138759613 0.1910499930381775 0.5061500072479248
O39 O 0.2673250138759613 0.6910499930381775 0.006149999797344208
O40 O 0.2673250138759613 0.6910499930381775 0.5061500072479248
O41 O 0.5173249840736389 0.1910499930381775 0.006149999797344208
O42 O 0.5173249840736389 0.1910499930381775 0.5061500072479248
O43 O 0.5173249840736389 0.6910499930381775 0.006149999797344208
O44 O 0.5173249840736389 0.6910499930381775 0.5061500072479248
O45 O 0.7673249840736389 0.1910499930381775 0.006149999797344208
O46 O 0.7673249840736389 0.1910499930381775 0.5061500072479248
O47 O 0.7673249840736389 0.6910499930381775 0.006149999797344208
O48 O 0.7673249840736389 0.6910499930381775 0.5061500072479248
O49 O 0.01732500083744526 0.1910499930381775 0.2438499927520752
O50 O 0.01732500083744526 0.1910499930381775 0.7438499927520752
O51 O 0.01732500083744526 0.6910499930381775 0.2438499927520752
O52 O 0.01732500083744526 0.6910499930381775 0.7438499927520752
O53 O 0.2673250138759613 0.1910499930381775 0.2438499927520752
O54 O 0.2673250138759613 0.1910499930381775 0.7438499927520752
O55 O 0.2673250138759613 0.6910499930381775 0.2438499927520752
O56 O 0.2673250138759613 0.6910499930381775 0.7438499927520752
O57 O 0.5173249840736389 0.1910499930381775 0.2438499927520752
O58 O 0.5173249840736389 0.1910499930381775 0.7438499927520752
O59 O 0.5173249840736389 0.6910499930381775 0.2438499927520752
O60 O 0.5173249840736389 0.6910499930381775 0.7438499927520752
O61 O 0.7673249840736389 0.1910499930381775 0.2438499927520752
O62 O 0.7673249840736389 0.1910499930381775 0.7438499927520752
O63 O 0.7673249840736389 0.6910499930381775 0.2438499927520752
O64 O 0.7673249840736389 0.6910499930381775 0.7438499927520752
O65 O 0.020524999126791954 0.00215000007301569 0.052149999886751175
O66 O 0.020524999126791954 0.00215000007301569 0.5521500110626221
O67 O 0.020524999126791954 0.5021499991416931 0.052149999886751175
O68 O 0.020524999126791954 0.5021499991416931 0.5521500110626221
O69 O 0.2705250084400177 0.00215000007301569 0.052149999886751175
O70 O 0.2705250084400177 0.00215000007301569 0.5521500110626221
O71 O 0.2705250084400177 0.5021499991416931 0.052149999886751175
O72 O 0.2705250084400177 0.5021499991416931 0.5521500110626221
O73 O 0.5205249786376953 0.00215000007301569 0.052149999886751175
O74 O 0.5205249786376953 0.00215000007301569 0.5521500110626221
O75 O 0.5205249786376953 0.5021499991416931 0.052149999886751175
O76 O 0.5205249786376953 0.5021499991416931 0.5521500110626221
O77 O 0.7705249786376953 0.00215000007301569 0.052149999886751175
O78 O 0.7705249786376953 0.00215000007301569 0.5521500110626221
O79 O 0.7705249786376953 0.5021499991416931 0.052149999886751175
O80 O 0.7705249786376953 0.5021499991416931 0.5521500110626221
O81 O 0.020524999126791954 0.00215000007301569 0.19785000383853912
O82 O 0.020524999126791954 0.00215000007301569 0.6978499889373779
O83 O 0.020524999126791954 0.5021499991416931 0.19785000383853912
O84 O 0.020524999126791954 0.5021499991416931 0.6978499889373779
O85 O 0.2705250084400177 0.00215000007301569 0.19785000383853912
O86 O 0.2705250084400177 0.00215000007301569 0.6978499889373779
O87 O 0.2705250084400177 0.5021499991416931 0.19785000383853912
O88 O 0.2705250084400177 0.5021499991416931 0.6978499889373779
O89 O 0.5205249786376953 0.00215000007301569 0.19785000383853912
O90 O 0.5205249786376953 0.00215000007301569 0.6978499889373779
O91 O 0.5205249786376953 0.5021499991416931 0.19785000383853912
O92 O 0.5205249786376953 0.5021499991416931 0.6978499889373779
O93 O 0.7705249786376953 0.00215000007301569 0.19785000383853912
O94 O 0.7705249786376953 0.00215000007301569 0.6978499889373779
O95 O 0.7705249786376953 0.5021499991416931 0.19785000383853912
O96 O 0.7705249786376953 0.5021499991416931 0.6978499889373779
O97 O 0.020524999126791954 0.24785000085830688 0.30215001106262207
O98 O 0.020524999126791954 0.24785000085830688 0.8021500110626221
O99 O 0.020524999126791954 0.7478500008583069 0.30215001106262207
O100 O 0.020524999126791954 0.7478500008583069 0.8021500110626221
O101 O 0.2705250084400177 0.24785000085830688 0.30215001106262207
O102 O 0.2705250084400177 0.24785000085830688 0.8021500110626221
O103 O 0.2705250084400177 0.7478500008583069 0.30215001106262207
O104 O 0.2705250084400177 0.7478500008583069 0.8021500110626221
O105 O 0.5205249786376953 0.24785000085830688 0.30215001106262207
O106 O 0.5205249786376953 0.24785000085830688 0.8021500110626221
O107 O 0.5205249786376953 0.7478500008583069 0.30215001106262207
O108 O 0.5205249786376953 0.7478500008583069 0.8021500110626221
O109 O 0.7705249786376953 0.24785000085830688 0.30215001106262207
O110 O 0.7705249786376953 0.24785000085830688 0.8021500110626221
O111 O 0.7705249786376953 0.7478500008583069 0.30215001106262207
O112 O 0.7705249786376953 0.7478500008583069 0.8021500110626221
O113 O 0.020524999126791954 0.24785000085830688 0.44784998893737793
O114 O 0.020524999126791954 0.24785000085830688 0.9478499889373779
O115 O 0.020524999126791954 0.7478500008583069 0.44784998893737793
O116 O 0.020524999126791954 0.7478500008583069 0.9478499889373779
O117 O 0.2705250084400177 0.24785000085830688 0.44784998893737793
O118 O 0.2705250084400177 0.24785000085830688 0.9478499889373779
O119 O 0.2705250084400177 0.7478500008583069 0.44784998893737793
O120 O 0.2705250084400177 0.7478500008583069 0.9478499889373779
O121 O 0.5205249786376953 0.24785000085830688 0.44784998893737793
O122 O 0.5205249786376953 0.24785000085830688 0.9478499889373779
O123 O 0.5205249786376953 0.7478500008583069 0.44784998893737793
O124 O 0.5205249786376953 0.7478500008583069 0.9478499889373779
O125 O 0.7705249786376953 0.24785000085830688 0.44784998893737793
O126 O 0.7705249786376953 0.24785000085830688 0.9478499889373779
O127 O 0.7705249786376953 0.7478500008583069 0.44784998893737793
O128 O 0.7705249786376953 0.7478500008583069 0.9478499889373779
O129 O 0.020774999633431435 0.08945000171661377 0.06530000269412994
O130 O 0.020774999633431435 0.08945000171661377 0.5652999877929688
O131 O 0.020774999633431435 0.5894500017166138 0.06530000269412994
O132 O 0.020774999633431435 0.5894500017166138 0.5652999877929688
O133 O 0.2707749903202057 0.08945000171661377 0.06530000269412994
O134 O 0.2707749903202057 0.08945000171661377 0.5652999877929688
O135 O 0.2707749903202057 0.5894500017166138 0.06530000269412994
O136 O 0.2707749903202057 0.5894500017166138 0.5652999877929688
O137 O 0.5207750201225281 0.08945000171661377 0.06530000269412994
O138 O 0.5207750201225281 0.08945000171661377 0.5652999877929688
O139 O 0.5207750201225281 0.5894500017166138 0.06530000269412994
O140 O 0.5207750201225281 0.5894500017166138 0.5652999877929688
O141 O 0.7707750201225281 0.08945000171661377 0.06530000269412994
O142 O 0.7707750201225281 0.08945000171661377 0.5652999877929688
O143 O 0.7707750201225281 0.5894500017166138 0.06530000269412994
O144 O 0.7707750201225281 0.5894500017166138 0.5652999877929688
O145 O 0.020774999633431435 0.08945000171661377 0.18469999730587006
O146 O 0.020774999633431435 0.08945000171661377 0.6847000122070312
O147 O 0.020774999633431435 0.5894500017166138 0.18469999730587006
O148 O 0.020774999633431435 0.5894500017166138 0.6847000122070312
O149 O 0.2707749903202057 0.08945000171661377 0.18469999730587006
O150 O 0.2707749903202057 0.08945000171661377 0.6847000122070312
O151 O 0.2707749903202057 0.5894500017166138 0.18469999730587006
O152 O 0.2707749903202057 0.5894500017166138 0.6847000122070312
O153 O 0.5207750201225281 0.08945000171661377 0.18469999730587006
O154 O 0.5207750201225281 0.08945000171661377 0.6847000122070312
O155 O 0.5207750201225281 0.5894500017166138 0.18469999730587006
O156 O 0.5207750201225281 0.5894500017166138 0.6847000122070312
O157 O 0.7707750201225281 0.08945000171661377 0.18469999730587006
O158 O 0.7707750201225281 0.08945000171661377 0.6847000122070312
O159 O 0.7707750201225281 0.5894500017166138 0.18469999730587006
O160 O 0.7707750201225281 0.5894500017166138 0.6847000122070312
O161 O 0.020774999633431435 0.16054999828338623 0.31529998779296875
O162 O 0.020774999633431435 0.16054999828338623 0.8152999877929688
O163 O 0.020774999633431435 0.6605499982833862 0.31529998779296875
O164 O 0.020774999633431435 0.6605499982833862 0.8152999877929688
O165 O 0.2707749903202057 0.16054999828338623 0.31529998779296875
O166 O 0.2707749903202057 0.16054999828338623 0.8152999877929688
O167 O 0.2707749903202057 0.6605499982833862 0.31529998779296875
O168 O 0.2707749903202057 0.6605499982833862 0.8152999877929688
O169 O 0.5207750201225281 0.16054999828338623 0.31529998779296875
O170 O 0.5207750201225281 0.16054999828338623 0.8152999877929688
O171 O 0.5207750201225281 0.6605499982833862 0.31529998779296875
O172 O 0.5207750201225281 0.6605499982833862 0.8152999877929688
O173 O 0.7707750201225281 0.16054999828338623 0.31529998779296875
O174 O 0.7707750201225281 0.16054999828338623 0.8152999877929688
O175 O 0.7707750201225281 0.6605499982833862 0.31529998779296875
O176 O 0.7707750201225281 0.6605499982833862 0.8152999877929688
O177 O 0.020774999633431435 0.16054999828338623 0.43470001220703125
O178 O 0.020774999633431435 0.16054999828338623 0.9347000122070312
O179 O 0.020774999633431435 0.6605499982833862 0.43470001220703125
O180 O 0.020774999633431435 0.6605499982833862 0.9347000122070312
O181 O 0.2707749903202057 0.16054999828338623 0.43470001220703125
O182 O 0.2707749903202057 0.16054999828338623 0.9347000122070312
O183 O 0.2707749903202057 0.6605499982833862 0.43470001220703125
O184 O 0.2707749903202057 0.6605499982833862 0.9347000122070312
O185 O 0.5207750201225281 0.16054999828338623 0.43470001220703125
O186 O 0.5207750201225281 0.16054999828338623 0.9347000122070312
O187 O 0.5207750201225281 0.6605499982833862 0.43470001220703125
O188 O 0.5207750201225281 0.6605499982833862 0.9347000122070312
O189 O 0.7707750201225281 0.16054999828338623 0.43470001220703125
O190 O 0.7707750201225281 0.16054999828338623 0.9347000122070312
O191 O 0.7707750201225281 0.6605499982833862 0.43470001220703125
O192 O 0.7707750201225281 0.6605499982833862 0.9347000122070312
O193 O 0.0265749990940094 0.33379998803138733 0.3201499879360199
O194 O 0.0265749990940094 0.33379998803138733 0.8201500177383423
O195 O 0.0265749990940094 0.8338000178337097 0.3201499879360199
O196 O 0.0265749990940094 0.8338000178337097 0.8201500177383423
O197 O 0.2765749990940094 0.33379998803138733 0.3201499879360199
O198 O 0.2765749990940094 0.33379998803138733 0.8201500177383423
O199 O 0.2765749990940094 0.8338000178337097 0.3201499879360199
O200 O 0.2765749990940094 0.8338000178337097 0.8201500177383423
O201 O 0.5265750288963318 0.33379998803138733 0.3201499879360199
O202 O 0.5265750288963318 0.33379998803138733 0.8201500177383423
O203 O 0.5265750288963318 0.8338000178337097 0.3201499879360199
O204 O 0.5265750288963318 0.8338000178337097 0.8201500177383423
O205 O 0.7765750288963318 0.33379998803138733 0.3201499879360199
O206 O 0.7765750288963318 0.33379998803138733 0.8201500177383423
O207 O 0.7765750288963318 0.8338000178337097 0.3201499879360199
O208 O 0.7765750288963318 0.8338000178337097 0.8201500177383423
O209 O 0.0265749990940094 0.33379998803138733 0.4298500120639801
O210 O 0.0265749990940094 0.33379998803138733 0.9298499822616577
O211 O 0.0265749990940094 0.8338000178337097 0.4298500120639801
O212 O 0.0265749990940094 0.8338000178337097 0.9298499822616577
O213 O 0.2765749990940094 0.33379998803138733 0.4298500120639801
O214 O 0.2765749990940094 0.33379998803138733 0.9298499822616577
O215 O 0.2765749990940094 0.8338000178337097 0.4298500120639801
O216 O 0.2765749990940094 0.8338000178337097 0.9298499822616577
O217 O 0.5265750288963318 0.33379998803138733 0.4298500120639801
O218 O 0.5265750288963318 0.33379998803138733 0.9298499822616577
O219 O 0.5265750288963318 0.8338000178337097 0.4298500120639801
O220 O 0.5265750288963318 0.8338000178337097 0.9298499822616577
O221 O 0.7765750288963318 0.33379998803138733 0.4298500120639801
O222 O 0.7765750288963318 0.33379998803138733 0.9298499822616577
O223 O 0.7765750288963318 0.8338000178337097 0.4298500120639801
O224 O 0.7765750288963318 0.8338000178337097 0.9298499822616577
O225 O 0.0265749990940094 0.41620001196861267 0.07015000283718109
O226 O 0.0265749990940094 0.41620001196861267 0.5701500177383423
O227 O 0.0265749990940094 0.9161999821662903 0.07015000283718109
O228 O 0.0265749990940094 0.9161999821662903 0.5701500177383423
O229 O 0.2765749990940094 0.41620001196861267 0.07015000283718109
O230 O 0.2765749990940094 0.41620001196861267 0.5701500177383423
O231 O 0.2765749990940094 0.9161999821662903 0.07015000283718109
O232 O 0.2765749990940094 0.9161999821662903 0.5701500177383423
O233 O 0.5265750288963318 0.41620001196861267 0.07015000283718109
O234 O 0.5265750288963318 0.41620001196861267 0.5701500177383423
O235 O 0.5265750288963318 0.9161999821662903 0.07015000283718109
O236 O 0.5265750288963318 0.9161999821662903 0.5701500177383423
O237 O 0.7765750288963318 0.41620001196861267 0.07015000283718109
O238 O 0.7765750288963318 0.41620001196861267 0.5701500177383423
O239 O 0.7765750288963318 0.9161999821662903 0.07015000283718109
O240 O 0.7765750288963318 0.9161999821662903 0.5701500177383423
O241 O 0.0265749990940094 0.41620001196861267 0.1798499971628189
O242 O 0.0265749990940094 0.41620001196861267 0.6798499822616577
O243 O 0.0265749990940094 0.9161999821662903 0.1798499971628189
O244 O 0.0265749990940094 0.9161999821662903 0.6798499822616577
O245 O 0.2765749990940094 0.41620001196861267 0.1798499971628189
O246 O 0.2765749990940094 0.41620001196861267 0.6798499822616577
O247 O 0.2765749990940094 0.9161999821662903 0.1798499971628189
O248 O 0.2765749990940094 0.9161999821662903 0.6798499822616577
O249 O 0.5265750288963318 0.41620001196861267 0.1798499971628189
O250 O 0.5265750288963318 0.41620001196861267 0.6798499822616577
O251 O 0.5265750288963318 0.9161999821662903 0.1798499971628189
O252 O 0.5265750288963318 0.9161999821662903 0.6798499822616577
O253 O 0.7765750288963318 0.41620001196861267 0.1798499971628189
O254 O 0.7765750288963318 0.41620001196861267 0.6798499822616577
O255 O 0.7765750288963318 0.9161999821662903 0.1798499971628189
O256 O 0.7765750288963318 0.9161999821662903 0.6798499822616577
O257 O 0.03584999963641167 0.3552500009536743 0.125
O258 O 0.03584999963641167 0.3552500009536743 0.625
O259 O 0.03584999963641167 0.8552500009536743 0.125
O260 O 0.03584999963641167 0.8552500009536743 0.625
O261 O 0.28584998846054077 0.3552500009536743 0.125
O262 O 0.28584998846054077 0.3552500009536743 0.625
O263 O 0.28584998846054077 0.8552500009536743 0.125
O264 O 0.28584998846054077 0.8552500009536743 0.625
O265 O 0.5358499884605408 0.3552500009536743 0.125
O266 O 0.5358499884605408 0.3552500009536743 0.625
O267 O 0.5358499884605408 0.8552500009536743 0.125
O268 O 0.5358499884605408 0.8552500009536743 0.625
O269 O 0.7858499884605408 0.3552500009536743 0.125
O270 O 0.7858499884605408 0.3552500009536743 0.625
O271 O 0.7858499884605408 0.8552500009536743 0.125
O272 O 0.7858499884605408 0.8552500009536743 0.625
O273 O 0.03584999963641167 0.3947499990463257 0.375
O274 O 0.03584999963641167 0.3947499990463257 0.875
O275 O 0.03584999963641167 0.8947499990463257 0.375
O276 O 0.03584999963641167 0.8947499990463257 0.875
O277 O 0.28584998846054077 0.3947499990463257 0.375
O278 O 0.28584998846054077 0.3947499990463257 0.875
O279 O 0.28584998846054077 0.8947499990463257 0.375
O280 O 0.28584998846054077 0.8947499990463257 0.875
O281 O 0.5358499884605408 0.3947499990463257 0.375
O282 O 0.5358499884605408 0.3947499990463257 0.875
O283 O 0.5358499884605408 0.8947499990463257 0.375
O284 O 0.5358499884605408 0.8947499990463257 0.875
O285 O 0.7858499884605408 0.3947499990463257 0.375
O286 O 0.7858499884605408 0.3947499990463257 0.875
O287 O 0.7858499884605408 0.8947499990463257 0.375
O288 O 0.7858499884605408 0.8947499990463257 0.875
O289 O 0.07342500239610672 0.3411000072956085 0.05620000138878822
O290 O 0.07342500239610672 0.3411000072956085 0.5562000274658203
O291 O 0.07342500239610672 0.8410999774932861 0.05620000138878822
O292 O 0.07342500239610672 0.8410999774932861 0.5562000274658203
O293 O 0.3234249949455261 0.3411000072956085 0.05620000138878822
O294 O 0.3234249949455261 0.3411000072956085 0.5562000274658203
O295 O 0.3234249949455261 0.8410999774932861 0.05620000138878822
O296 O 0.3234249949455261 0.8410999774932861 0.5562000274658203
O297 O 0.5734249949455261 0.3411000072956085 0.05620000138878822
O298 O 0.5734249949455261 0.3411000072956085 0.5562000274658203
O299 O 0.5734249949455261 0.8410999774932861 0.05620000138878822
O300 O 0.5734249949455261 0.8410999774932861 0.5562000274658203
O301 O 0.8234249949455261 0.3411000072956085 0.05620000138878822
O302 O 0.8234249949455261 0.3411000072956085 0.5562000274658203
O303 O 0.8234249949455261 0.8410999774932861 0.05620000138878822
O304 O 0.8234249949455261 0.8410999774932861 0.5562000274658203
O305 O 0.07342500239610672 0.3411000072956085 0.19380000233650208
O306 O 0.07342500239610672 0.3411000072956085 0.6937999725341797
O307 O 0.07342500239610672 0.8410999774932861 0.19380000233650208
O308 O 0.07342500239610672 0.8410999774932861 0.6937999725341797
O309 O 0.3234249949455261 0.3411000072956085 0.19380000233650208
O310 O 0.3234249949455261 0.3411000072956085 0.6937999725341797
O311 O 0.3234249949455261 0.8410999774932861 0.19380000233650208
O312 O 0.3234249949455261 0.8410999774932861 0.6937999725341797
O313 O 0.5734249949455261 0.3411000072956085 0.19380000233650208
O314 O 0.5734249949455261 0.3411000072956085 0.6937999725341797
O315 O 0.5734249949455261 0.8410999774932861 0.19380000233650208
O316 O 0.5734249949455261 0.8410999774932861 0.6937999725341797
O317 O 0.8234249949455261 0.3411000072956085 0.19380000233650208
O318 O 0.8234249949455261 0.3411000072956085 0.6937999725341797
O319 O 0.8234249949455261 0.8410999774932861 0.19380000233650208
O320 O 0.8234249949455261 0.8410999774932861 0.6937999725341797
O321 O 0.07342500239610672 0.4088999927043915 0.3061999976634979
O322 O 0.07342500239610672 0.4088999927043915 0.8062000274658203
O323 O 0.07342500239610672 0.9089000225067139 0.3061999976634979
O324 O 0.07342500239610672 0.9089000225067139 0.8062000274658203
O325 O 0.3234249949455261 0.4088999927043915 0.3061999976634979
O326 O 0.3234249949455261 0.4088999927043915 0.8062000274658203
O327 O 0.3234249949455261 0.9089000225067139 0.3061999976634979
O328 O 0.3234249949455261 0.9089000225067139 0.8062000274658203
O329 O 0.5734249949455261 0.4088999927043915 0.3061999976634979
O330 O 0.5734249949455261 0.4088999927043915 0.8062000274658203
O331 O 0.5734249949455261 0.9089000225067139 0.3061999976634979
O332 O 0.5734249949455261 0.9089000225067139 0.8062000274658203
O333 O 0.8234249949455261 0.4088999927043915 0.3061999976634979
O334 O 0.8234249949455261 0.4088999927043915 0.8062000274658203
O335 O 0.8234249949455261 0.9089000225067139 0.3061999976634979
O336 O 0.8234249949455261 0.9089000225067139 0.8062000274658203
O337 O 0.07342500239610672 0.4088999927043915 0.4438000023365021
O338 O 0.07342500239610672 0.4088999927043915 0.9437999725341797
O339 O 0.07342500239610672 0.9089000225067139 0.4438000023365021
O340 O 0.07342500239610672 0.9089000225067139 0.9437999725341797
O341 O 0.3234249949455261 0.4088999927043915 0.4438000023365021
O342 O 0.3234249949455261 0.4088999927043915 0.9437999725341797
O343 O 0.3234249949455261 0.9089000225067139 0.4438000023365021
O344 O 0.3234249949455261 0.9089000225067139 0.9437999725341797
O345 O 0.5734249949455261 0.4088999927043915 0.4438000023365021
O346 O 0.5734249949455261 0.4088999927043915 0.9437999725341797
O347 O 0.5734249949455261 0.9089000225067139 0.4438000023365021
O348 O 0.5734249949455261 0.9089000225067139 0.9437999725341797
O349 O 0.8234249949455261 0.4088999927043915 0.4438000023365021
O350 O 0.8234249949455261 0.4088999927043915 0.9437999725341797
O351 O 0.8234249949455261 0.9089000225067139 0.4438000023365021
O352 O 0.8234249949455261 0.9089000225067139 0.9437999725341797
O353 O 0.07699999958276749 0.3009999990463257 0.2617500126361847
O354 O 0.07699999958276749 0.3009999990463257 0.7617499828338623
O355 O 0.07699999958276749 0.8009999990463257 0.2617500126361847
O356 O 0.07699999958276749 0.8009999990463257 0.7617499828338623
O357 O 0.3269999921321869 0.3009999990463257 0.2617500126361847
O358 O 0.3269999921321869 0.3009999990463257 0.7617499828338623
O359 O 0.3269999921321869 0.8009999990463257 0.2617500126361847
O360 O 0.3269999921321869 0.8009999990463257 0.7617499828338623
O361 O 0.5770000219345093 0.3009999990463257 0.2617500126361847
O362 O 0.5770000219345093 0.3009999990463257 0.7617499828338623
O363 O 0.5770000219345093 0.8009999990463257 0.2617500126361847
O364 O 0.5770000219345093 0.8009999990463257 0.7617499828338623
O365 O 0.8270000219345093 0.3009999990463257 0.2617500126361847
O366 O 0.8270000219345093 0.3009999990463257 0.7617499828338623
O367 O 0.8270000219345093 0.8009999990463257 0.2617500126361847
O368 O 0.8270000219345093 0.8009999990463257 0.7617499828338623
O369 O 0.07699999958276749 0.3009999990463257 0.4882499873638153
O370 O 0.07699999958276749 0.3009999990463257 0.9882500171661377
O371 O 0.07699999958276749 0.8009999990463257 0.4882499873638153
O372 O 0.07699999958276749 0.8009999990463257 0.9882500171661377
O373 O 0.3269999921321869 0.3009999990463257 0.4882499873638153
O374 O 0.3269999921321869 0.3009999990463257 0.9882500171661377
O375 O 0.3269999921321869 0.8009999990463257 0.4882499873638153
O376 O 0.3269999921321869 0.8009999990463257 0.9882500171661377
O377 O 0.5770000219345093 0.3009999990463257 0.4882499873638153
O378 O 0.5770000219345093 0.3009999990463257 0.9882500171661377
O379 O 0.5770000219345093 0.8009999990463257 0.4882499873638153
O380 O 0.5770000219345093 0.8009999990463257 0.9882500171661377
O381 O 0.8270000219345093 0.3009999990463257 0.4882499873638153
O382 O 0.8270000219345093 0.3009999990463257 0.9882500171661377
O383 O 0.8270000219345093 0.8009999990463257 0.4882499873638153
O384 O 0.8270000219345093 0.8009999990463257 0.9882500171661377
O385 O 0.07699999958276749 0.4490000009536743 0.011749999597668648
O386 O 0.07699999958276749 0.4490000009536743 0.5117499828338623
O387 O 0.07699999958276749 0.9490000009536743 0.011749999597668648
O388 O 0.07699999958276749 0.9490000009536743 0.5117499828338623
O389 O 0.3269999921321869 0.4490000009536743 0.011749999597668648
O390 O 0.3269999921321869 0.4490000009536743 0.5117499828338623
O391 O 0.3269999921321869 0.9490000009536743 0.011749999597668648
O392 O 0.3269999921321869 0.9490000009536743 0.5117499828338623
O393 O 0.5770000219345093 0.4490000009536743 0.011749999597668648
O394 O 0.5770000219345093 0.4490000009536743 0.5117499828338623
O395 O 0.5770000219345093 0.9490000009536743 0.011749999597668648
O396 O 0.5770000219345093 0.9490000009536743 0.5117499828338623
O397 O 0.8270000219345093 0.4490000009536743 0.011749999597668648
O398 O 0.8270000219345093 0.4490000009536743 0.5117499828338623
O399 O 0.8270000219345093 0.9490000009536743 0.011749999597668648
O400 O 0.8270000219345093 0.9490000009536743 0.5117499828338623
O401 O 0.07699999958276749 0.4490000009536743 0.2382500022649765
O402 O 0.07699999958276749 0.4490000009536743 0.7382500171661377
O403 O 0.07699999958276749 0.9490000009536743 0.2382500022649765
O404 O 0.07699999958276749 0.9490000009536743 0.7382500171661377
O405 O 0.3269999921321869 0.4490000009536743 0.2382500022649765
O406 O 0.3269999921321869 0.4490000009536743 0.7382500171661377
O407 O 0.3269999921321869 0.9490000009536743 0.2382500022649765
O408 O 0.3269999921321869 0.9490000009536743 0.7382500171661377
O409 O 0.5770000219345093 0.4490000009536743 0.2382500022649765
O410 O 0.5770000219345093 0.4490000009536743 0.7382500171661377
O411 O 0.5770000219345093 0.9490000009536743 0.2382500022649765
O412 O 0.5770000219345093 0.9490000009536743 0.7382500171661377
O413 O 0.8270000219345093 0.4490000009536743 0.2382500022649765
O414 O 0.8270000219345093 0.4490000009536743 0.7382500171661377
O415 O 0.8270000219345093 0.9490000009536743 0.2382500022649765
O416 O 0.8270000219345093 0.9490000009536743 0.7382500171661377
O417 O 0.0970500037074089 0.050200000405311584 0.034449998289346695
O418 O 0.0970500037074089 0.050200000405311584 0.5344499945640564
O419 O 0.0970500037074089 0.5501999855041504 0.034449998289346695
O420 O 0.0970500037074089 0.5501999855041504 0.5344499945640564
O421 O 0.3470500111579895 0.050200000405311584 0.034449998289346695
O422 O 0.3470500111579895 0.050200000405311584 0.5344499945640564
O423 O 0.3470500111579895 0.5501999855041504 0.034449998289346695
O424 O 0.3470500111579895 0.5501999855041504 0.5344499945640564
O425 O 0.5970500111579895 0.050200000405311584 0.034449998289346695
O426 O 0.5970500111579895 0.050200000405311584 0.5344499945640564
O427 O 0.5970500111579895 0.5501999855041504 0.034449998289346695
O428 O 0.5970500111579895 0.5501999855041504 0.5344499945640564
O429 O 0.8470500111579895 0.050200000405311584 0.034449998289346695
O430 O 0.8470500111579895 0.050200000405311584 0.5344499945640564
O431 O 0.8470500111579895 0.5501999855041504 0.034449998289346695
O432 O 0.8470500111579895 0.5501999855041504 0.5344499945640564
O433 O 0.0970500037074089 0.050200000405311584 0.2155500054359436
O434 O 0.0970500037074089 0.050200000405311584 0.7155500054359436
O435 O 0.0970500037074089 0.5501999855041504 0.2155500054359436
O436 O 0.0970500037074089 0.5501999855041504 0.7155500054359436
O437 O 0.3470500111579895 0.050200000405311584 0.2155500054359436
O438 O 0.3470500111579895 0.050200000405311584 0.7155500054359436
O439 O 0.3470500111579895 0.5501999855041504 0.2155500054359436
O440 O 0.3470500111579895 0.5501999855041504 0.7155500054359436
O441 O 0.5970500111579895 0.050200000405311584 0.2155500054359436
O442 O 0.5970500111579895 0.050200000405311584 0.7155500054359436
O443 O 0.5970500111579895 0.5501999855041504 0.2155500054359436
O444 O 0.5970500111579895 0.5501999855041504 0.7155500054359436
O445 O 0.8470500111579895 0.050200000405311584 0.2155500054359436
O446 O 0.8470500111579895 0.050200000405311584 0.7155500054359436
O447 O 0.8470500111579895 0.5501999855041504 0.2155500054359436
O448 O 0.8470500111579895 0.5501999855041504 0.7155500054359436
O449 O 0.0970500037074089 0.19979999959468842 0.2844499945640564
O450 O 0.0970500037074089 0.19979999959468842 0.7844499945640564
O451 O 0.0970500037074089 0.6998000144958496 0.2844499945640564
O452 O 0.0970500037074089 0.6998000144958496 0.7844499945640564
O453 O 0.3470500111579895 0.19979999959468842 0.2844499945640564
O454 O 0.3470500111579895 0.19979999959468842 0.7844499945640564
O455 O 0.3470500111579895 0.6998000144958496 0.2844499945640564
O456 O 0.3470500111579895 0.6998000144958496 0.7844499945640564
O457 O 0.5970500111579895 0.19979999959468842 0.2844499945640564
O458 O 0.5970500111579895 0.19979999959468842 0.7844499945640564
O459 O 0.5970500111579895 0.6998000144958496 0.2844499945640564
O460 O 0.5970500111579895 0.6998000144958496 0.7844499945640564
O461 O 0.8470500111579895 0.19979999959468842 0.2844499945640564
O462 O 0.8470500111579895 0.19979999959468842 0.7844499945640564
O463 O 0.8470500111579895 0.6998000144958496 0.2844499945640564
O464 O 0.8470500111579895 0.6998000144958496 0.7844499945640564
O465 O 0.0970500037074089 0.19979999959468842 0.4655500054359436
O466 O 0.0970500037074089 0.19979999959468842 0.9655500054359436
O467 O 0.0970500037074089 0.6998000144958496 0.4655500054359436
O468 O 0.0970500037074089 0.6998000144958496 0.9655500054359436
O469 O 0.3470500111579895 0.19979999959468842 0.4655500054359436
O470 O 0.3470500111579895 0.19979999959468842 0.9655500054359436
O471 O 0.3470500111579895 0.6998000144958496 0.4655500054359436
O472 O 0.3470500111579895 0.6998000144958496 0.9655500054359436
O473 O 0.5970500111579895 0.19979999959468842 0.4655500054359436
O474 O 0.5970500111579895 0.19979999959468842 0.9655500054359436
O475 O 0.5970500111579895 0.6998000144958496 0.4655500054359436
O476 O 0.5970500111579895 0.6998000144958496 0.9655500054359436
O477 O 0.8470500111579895 0.19979999959468842 0.4655500054359436
O478 O 0.8470500111579895 0.19979999959468842 0.9655500054359436
O479 O 0.8470500111579895 0.6998000144958496 0.4655500054359436
O480 O 0.8470500111579895 0.6998000144958496 0.9655500054359436
O481 O 0.12352500110864639 0.125 0.0
O482 O 0.12352500110864639 0.125 0.5
O483 O 0.12352500110864639 0.625 0.0
O484 O 0.12352500110864639 0.625 0.5
O485 O 0.3735249936580658 0.125 0.0
O486 O 0.3735249936580658 0.125 0.5
O487 O 0.3735249936580658 0.625 0.0
O488 O 0.3735249936580658 0.625 0.5
O489 O 0.6235250234603882 0.125 0.0
O490 O 0.6235250234603882 0.125 0.5
O491 O 0.6235250234603882 0.625 0.0
O492 O 0.6235250234603882 0.625 0.5
O493 O 0.8735250234603882 0.125 0.0
O494 O 0.8735250234603882 0.125 0.5
O495 O 0.8735250234603882 0.625 0.0
O496 O 0.8735250234603882 0.625 0.5
O497 O 0.12352500110864639 0.125 0.25
O498 O 0.12352500110864639 0.125 0.75
O499 O 0.12352500110864639 0.625 0.25
O500 O 0.12352500110864639 0.625 0.75
O501 O 0.3735249936580658 0.125 0.25
O502 O 0.3735249936580658 0.125 0.75
O503 O 0.3735249936580658 0.625 0.25
O504 O 0.3735249936580658 0.625 0.75
O505 O 0.6235250234603882 0.125 0.25
O506 O 0.6235250234603882 0.125 0.75
O507 O 0.6235250234603882 0.625 0.25
O508 O 0.6235250234603882 0.625 0.75
O509 O 0.8735250234603882 0.125 0.25
O510 O 0.8735250234603882 0.125 0.75
O511 O 0.8735250234603882 0.625 0.25
O512 O 0.8735250234603882 0.625 0.75
O513 O 0.12352500110864639 0.125 0.5
O514 O 0.12352500110864639 0.125 1.0
O515 O 0.12352500110864639 0.625 0.5
O516 O 0.12352500110864639 0.625 1.0
O517 O 0.3735249936580658 0.125 0.5
O518 O 0.3735249936580658 0.125 1.0
O519 O 0.3735249936580658 0.625 0.5
O520 O 0.3735249936580658 0.625 1.0
O521 O 0.6235250234603882 0.125 0.5
O522 O 0.6235250234603882 0.125 1.0
O523 O 0.6235250234603882 0.625 0.5
O524 O 0.6235250234603882 0.625 1.0
O525 O 0.8735250234603882 0.125 0.5
O526 O 0.8735250234603882 0.125 1.0
O527 O 0.8735250234603882 0.625 0.5
O528 O 0.8735250234603882 0.625 1.0
O529 O 0.1264750063419342 0.375 0.0
O530 O 0.1264750063419342 0.375 0.5
O531 O 0.1264750063419342 0.875 0.0
O532 O 0.1264750063419342 0.875 0.5
O533 O 0.3764750063419342 0.375 0.0
O534 O 0.3764750063419342 0.375 0.5
O535 O 0.3764750063419342 0.875 0.0
O536 O 0.3764750063419342 0.875 0.5
O537 O 0.6264749765396118 0.375 0.0
O538 O 0.6264749765396118 0.375 0.5
O539 O 0.6264749765396118 0.875 0.0
O540 O 0.6264749765396118 0.875 0.5
O541 O 0.8764749765396118 0.375 0.0
O542 O 0.8764749765396118 0.375 0.5
O543 O 0.8764749765396118 0.875 0.0
O544 O 0.8764749765396118 0.875 0.5
O545 O 0.1264750063419342 0.375 0.25
O546 O 0.1264750063419342 0.375 0.75
O547 O 0.1264750063419342 0.875 0.25
O548 O 0.1264750063419342 0.875 0.75
O549 O 0.3764750063419342 0.375 0.25
O550 O 0.3764750063419342 0.375 0.75
O551 O 0.3764750063419342 0.875 0.25
O552 O 0.3764750063419342 0.875 0.75
O553 O 0.6264749765396118 0.375 0.25
O554 O 0.6264749765396118 0.375 0.75
O555 O 0.6264749765396118 0.875 0.25
O556 O 0.6264749765396118 0.875 0.75
O557 O 0.8764749765396118 0.375 0.25
O558 O 0.8764749765396118 0.375 0.75
O559 O 0.8764749765396118 0.875 0.25
O560 O 0.8764749765396118 0.875 0.75
O561 O 0.1264750063419342 0.375 0.5
O562 O 0.1264750063419342 0.375 1.0
O563 O 0.1264750063419342 0.875 0.5
O564 O 0.1264750063419342 0.875 1.0
O565 O 0.3764750063419342 0.375 0.5
O566 O 0.3764750063419342 0.375 1.0
O567 O 0.3764750063419342 0.875 0.5
O568 O 0.3764750063419342 0.875 1.0
O569 O 0.6264749765396118 0.375 0.5
O570 O 0.6264749765396118 0.375 1.0
O571 O 0.6264749765396118 0.875 0.5
O572 O 0.6264749765396118 0.875 1.0
O573 O 0.8764749765396118 0.375 0.5
O574 O 0.8764749765396118 0.375 1.0
O575 O 0.8764749765396118 0.875 0.5
O576 O 0.8764749765396118 0.875 1.0
O577 O 0.1529500037431717 0.3001999855041504 0.034449998289346695
O578 O 0.1529500037431717 0.3001999855041504 0.5344499945640564
O579 O 0.1529500037431717 0.8001999855041504 0.034449998289346695
O580 O 0.1529500037431717 0.8001999855041504 0.5344499945640564
O581 O 0.4029499888420105 0.3001999855041504 0.034449998289346695
O582 O 0.4029499888420105 0.3001999855041504 0.5344499945640564
O583 O 0.4029499888420105 0.8001999855041504 0.034449998289346695
O584 O 0.4029499888420105 0.8001999855041504 0.5344499945640564
O585 O 0.6529499888420105 0.3001999855041504 0.034449998289346695
O586 O 0.6529499888420105 0.3001999855041504 0.5344499945640564
O587 O 0.6529499888420105 0.8001999855041504 0.034449998289346695
O588 O 0.6529499888420105 0.8001999855041504 0.5344499945640564
O589 O 0.9029499888420105 0.3001999855041504 0.034449998289346695
O590 O 0.9029499888420105 0.3001999855041504 0.5344499945640564
O591 O 0.9029499888420105 0.8001999855041504 0.034449998289346695
O592 O 0.9029499888420105 0.8001999855041504 0.5344499945640564
O593 O 0.1529500037431717 0.3001999855041504 0.2155500054359436
O594 O 0.1529500037431717 0.3001999855041504 0.7155500054359436
O595 O 0.1529500037431717 0.8001999855041504 0.2155500054359436
O596 O 0.1529500037431717 0.8001999855041504 0.7155500054359436
O597 O 0.4029499888420105 0.3001999855041504 0.2155500054359436
O598 O 0.4029499888420105 0.3001999855041504 0.7155500054359436
O599 O 0.4029499888420105 0.8001999855041504 0.2155500054359436
O600 O 0.4029499888420105 0.8001999855041504 0.7155500054359436
O601 O 0.6529499888420105 0.3001999855041504 0.2155500054359436
O602 O 0.6529499888420105 0.3001999855041504 0.7155500054359436
O603 O 0.6529499888420105 0.8001999855041504 0.2155500054359436
O604 O 0.6529499888420105 0.8001999855041504 0.7155500054359436
O605 O 0.9029499888420105 0.3001999855041504 0.2155500054359436
O606 O 0.9029499888420105 0.3001999855041504 0.7155500054359436
O607 O 0.9029499888420105 0.8001999855041504 0.2155500054359436
O608 O 0.9029499888420105 0.8001999855041504 0.7155500054359436
O609 O 0.1529500037431717 0.4498000144958496 0.2844499945640564
O610 O 0.1529500037431717 0.4498000144958496 0.7844499945640564
O611 O 0.1529500037431717 0.9498000144958496 0.2844499945640564
O612 O 0.1529500037431717 0.9498000144958496 0.7844499945640564
O613 O 0.4029499888420105 0.4498000144958496 0.2844499945640564
O614 O 0.4029499888420105 0.4498000144958496 0.7844499945640564
O615 O 0.4029499888420105 0.9498000144958496 0.2844499945640564
O616 O 0.4029499888420105 0.9498000144958496 0.7844499945640564
O617 O 0.6529499888420105 0.4498000144958496 0.2844499945640564
O618 O 0.6529499888420105 0.4498000144958496 0.7844499945640564
O619 O 0.6529499888420105 0.9498000144958496 0.2844499945640564
O620 O 0.6529499888420105 0.9498000144958496 0.7844499945640564
O621 O 0.9029499888420105 0.4498000144958496 0.2844499945640564
O622 O 0.9029499888420105 0.4498000144958496 0.7844499945640564
O623 O 0.9029499888420105 0.9498000144958496 0.2844499945640564
O624 O 0.9029499888420105 0.9498000144958496 0.7844499945640564
O625 O 0.1529500037431717 0.4498000144958496 0.4655500054359436
O626 O 0.1529500037431717 0.4498000144958496 0.9655500054359436
O627 O 0.1529500037431717 0.9498000144958496 0.4655500054359436
O628 O 0.1529500037431717 0.9498000144958496 0.9655500054359436
O629 O 0.4029499888420105 0.4498000144958496 0.4655500054359436
O630 O 0.4029499888420105 0.4498000144958496 0.9655500054359436
O631 O 0.4029499888420105 0.9498000144958496 0.4655500054359436
O632 O 0.4029499888420105 0.9498000144958496 0.9655500054359436
O633 O 0.6529499888420105 0.4498000144958496 0.4655500054359436
O634 O 0.6529499888420105 0.4498000144958496 0.9655500054359436
O635 O 0.6529499888420105 0.9498000144958496 0.4655500054359436
O636 O 0.6529499888420105 0.9498000144958496 0.9655500054359436
O637 O 0.9029499888420105 0.4498000144958496 0.4655500054359436
O638 O 0.9029499888420105 0.4498000144958496 0.9655500054359436
O639 O 0.9029499888420105 0.9498000144958496 0.4655500054359436
O640 O 0.9029499888420105 0.9498000144958496 0.9655500054359436
O641 O 0.17299999296665192 0.050999999046325684 0.2617500126361847
O642 O 0.17299999296665192 0.050999999046325684 0.7617499828338623
O643 O 0.17299999296665192 0.5509999990463257 0.2617500126361847
O644 O 0.17299999296665192 0.5509999990463257 0.7617499828338623
O645 O 0.4230000078678131 0.050999999046325684 0.2617500126361847
O646 O 0.4230000078678131 0.050999999046325684 0.7617499828338623
O647 O 0.4230000078678131 0.5509999990463257 0.2617500126361847
O648 O 0.4230000078678131 0.5509999990463257 0.7617499828338623
O649 O 0.6729999780654907 0.050999999046325684 0.2617500126361847
O650 O 0.6729999780654907 0.050999999046325684 0.7617499828338623
O651 O 0.6729999780654907 0.5509999990463257 0.2617500126361847
O652 O 0.6729999780654907 0.5509999990463257 0.7617499828338623
O653 O 0.9229999780654907 0.050999999046325684 0.2617500126361847
O654 O 0.9229999780654907 0.050999999046325684 0.7617499828338623
O655 O 0.9229999780654907 0.5509999990463257 0.2617500126361847
O656 O 0.9229999780654907 0.5509999990463257 0.7617499828338623
O657 O 0.17299999296665192 0.050999999046325684 0.4882499873638153
O658 O 0.17299999296665192 0.050999999046325684 0.9882500171661377
O659 O 0.17299999296665192 0.5509999990463257 0.4882499873638153
O660 O 0.17299999296665192 0.5509999990463257 0.9882500171661377
O661 O 0.4230000078678131 0.050999999046325684 0.4882499873638153
O662 O 0.4230000078678131 0.050999999046325684 0.9882500171661377
O663 O 0.4230000078678131 0.5509999990463257 0.4882499873638153
O664 O 0.4230000078678131 0.5509999990463257 0.9882500171661377
O665 O 0.6729999780654907 0.050999999046325684 0.4882499873638153
O666 O 0.6729999780654907 0.050999999046325684 0.9882500171661377
O667 O 0.6729999780654907 0.5509999990463257 0.4882499873638153
O668 O 0.6729999780654907 0.5509999990463257 0.9882500171661377
O669 O 0.9229999780654907 0.050999999046325684 0.4882499873638153
O670 O 0.9229999780654907 0.050999999046325684 0.9882500171661377
O671 O 0.9229999780654907 0.5509999990463257 0.4882499873638153
O672 O 0.9229999780654907 0.5509999990463257 0.9882500171661377
O673 O 0.17299999296665192 0.19900000095367432 0.011749999597668648
O674 O 0.17299999296665192 0.19900000095367432 0.5117499828338623
O675 O 0.17299999296665192 0.6990000009536743 0.011749999597668648
O676 O 0.17299999296665192 0.6990000009536743 0.5117499828338623
O677 O 0.4230000078678131 0.19900000095367432 0.011749999597668648
O678 O 0.4230000078678131 0.19900000095367432 0.5117499828338623
O679 O 0.4230000078678131 0.6990000009536743 0.011749999597668648
O680 O 0.4230000078678131 0.6990000009536743 0.5117499828338623
O681 O 0.6729999780654907 0.19900000095367432 0.011749999597668648
O682 O 0.6729999780654907 0.19900000095367432 0.5117499828338623
O683 O 0.6729999780654907 0.6990000009536743 0.011749999597668648
O684 O 0.6729999780654907 0.6990000009536743 0.5117499828338623
O685 O 0.9229999780654907 0.19900000095367432 0.011749999597668648
O686 O 0.9229999780654907 0.19900000095367432 0.5117499828338623
O687 O 0.9229999780654907 0.6990000009536743 0.011749999597668648
O688 O 0.9229999780654907 0.6990000009536743 0.5117499828338623
O689 O 0.17299999296665192 0.19900000095367432 0.2382500022649765
O690 O 0.17299999296665192 0.19900000095367432 0.7382500171661377
O691 O 0.17299999296665192 0.6990000009536743 0.2382500022649765
O692 O 0.17299999296665192 0.6990000009536743 0.7382500171661377
O693 O 0.4230000078678131 0.19900000095367432 0.2382500022649765
O694 O 0.4230000078678131 0.19900000095367432 0.7382500171661377
O695 O 0.4230000078678131 0.6990000009536743 0.2382500022649765
O696 O 0.4230000078678131 0.6990000009536743 0.7382500171661377
O697 O 0.6729999780654907 0.19900000095367432 0.2382500022649765
O698 O 0.6729999780654907 0.19900000095367432 0.7382500171661377
O699 O 0.6729999780654907 0.6990000009536743 0.2382500022649765
O700 O 0.6729999780654907 0.6990000009536743 0.7382500171661377
O701 O 0.9229999780654907 0.19900000095367432 0.2382500022649765
O702 O 0.9229999780654907 0.19900000095367432 0.7382500171661377
O703 O 0.9229999780654907 0.6990000009536743 0.2382500022649765
O704 O 0.9229999780654907 0.6990000009536743 0.7382500171661377
O705 O 0.17657500505447388 0.09109999984502792 0.05620000138878822
O706 O 0.17657500505447388 0.09109999984502792 0.5562000274658203
O707 O 0.17657500505447388 0.5910999774932861 0.05620000138878822
O708 O 0.17657500505447388 0.5910999774932861 0.5562000274658203
O709 O 0.4265750050544739 0.09109999984502792 0.05620000138878822
O710 O 0.4265750050544739 0.09109999984502792 0.5562000274658203
O711 O 0.4265750050544739 0.5910999774932861 0.05620000138878822
O712 O 0.4265750050544739 0.5910999774932861 0.5562000274658203
O713 O 0.6765750050544739 0.09109999984502792 0.05620000138878822
O714 O 0.6765750050544739 0.09109999984502792 0.5562000274658203
O715 O 0.6765750050544739 0.5910999774932861 0.05620000138878822
O716 O 0.6765750050544739 0.5910999774932861 0.5562000274658203
O717 O 0.9265750050544739 0.09109999984502792 0.05620000138878822
O718 O 0.9265750050544739 0.09109999984502792 0.5562000274658203
O719 O 0.9265750050544739 0.5910999774932861 0.05620000138878822
O720 O 0.9265750050544739 0.5910999774932861 0.5562000274658203
O721 O 0.17657500505447388 0.09109999984502792 0.19380000233650208
O722 O 0.17657500505447388 0.09109999984502792 0.6937999725341797
O723 O 0.17657500505447388 0.5910999774932861 0.19380000233650208
O724 O 0.17657500505447388 0.5910999774932861 0.6937999725341797
O725 O 0.4265750050544739 0.09109999984502792 0.19380000233650208
O726 O 0.4265750050544739 0.09109999984502792 0.6937999725341797
O727 O 0.4265750050544739 0.5910999774932861 0.19380000233650208
O728 O 0.4265750050544739 0.5910999774932861 0.6937999725341797
O729 O 0.6765750050544739 0.09109999984502792 0.19380000233650208
O730 O 0.6765750050544739 0.09109999984502792 0.6937999725341797
O731 O 0.6765750050544739 0.5910999774932861 0.19380000233650208
O732 O 0.6765750050544739 0.5910999774932861 0.6937999725341797
O733 O 0.9265750050544739 0.09109999984502792 0.19380000233650208
O734 O 0.9265750050544739 0.09109999984502792 0.6937999725341797
O735 O 0.9265750050544739 0.5910999774932861 0.19380000233650208
O736 O 0.9265750050544739 0.5910999774932861 0.6937999725341797
O737 O 0.17657500505447388 0.15889999270439148 0.3061999976634979
O738 O 0.17657500505447388 0.15889999270439148 0.8062000274658203
O739 O 0.17657500505447388 0.6589000225067139 0.3061999976634979
O740 O 0.17657500505447388 0.6589000225067139 0.8062000274658203
O741 O 0.4265750050544739 0.15889999270439148 0.3061999976634979
O742 O 0.4265750050544739 0.15889999270439148 0.8062000274658203
O743 O 0.4265750050544739 0.6589000225067139 0.3061999976634979
O744 O 0.4265750050544739 0.6589000225067139 0.8062000274658203
O745 O 0.6765750050544739 0.15889999270439148 0.3061999976634979
O746 O 0.6765750050544739 0.15889999270439148 0.8062000274658203
O747 O 0.6765750050544739 0.6589000225067139 0.3061999976634979
O748 O 0.6765750050544739 0.6589000225067139 0.8062000274658203
O749 O 0.9265750050544739 0.15889999270439148 0.3061999976634979
O750 O 0.9265750050544739 0.15889999270439148 0.8062000274658203
O751 O 0.9265750050544739 0.6589000225067139 0.3061999976634979
O752 O 0.9265750050544739 0.6589000225067139 0.8062000274658203
O753 O 0.17657500505447388 0.15889999270439148 0.4438000023365021
O754 O 0.17657500505447388 0.15889999270439148 0.9437999725341797
O755 O 0.17657500505447388 0.6589000225067139 0.4438000023365021
O756 O 0.17657500505447388 0.6589000225067139 0.9437999725341797
O757 O 0.4265750050544739 0.15889999270439148 0.4438000023365021
O758 O 0.4265750050544739 0.15889999270439148 0.9437999725341797
O759 O 0.4265750050544739 0.6589000225067139 0.4438000023365021
O760 O 0.4265750050544739 0.6589000225067139 0.9437999725341797
O761 O 0.6765750050544739 0.15889999270439148 0.4438000023365021
O762 O 0.6765750050544739 0.15889999270439148 0.9437999725341797
O763 O 0.6765750050544739 0.6589000225067139 0.4438000023365021
O764 O 0.6765750050544739 0.6589000225067139 0.9437999725341797
O765 O 0.9265750050544739 0.15889999270439148 0.4438000023365021
O766 O 0.9265750050544739 0.15889999270439148 0.9437999725341797
O767 O 0.9265750050544739 0.6589000225067139 0.4438000023365021
O768 O 0.9265750050544739 0.6589000225067139 0.9437999725341797
O769 O 0.21414999663829803 0.10525000095367432 0.125
O770 O 0.21414999663829803 0.10525000095367432 0.625
O771 O 0.21414999663829803 0.6052500009536743 0.125
O772 O 0.21414999663829803 0.6052500009536743 0.625
O773 O 0.46415001153945923 0.10525000095367432 0.125
O774 O 0.46415001153945923 0.10525000095367432 0.625
O775 O 0.46415001153945923 0.6052500009536743 0.125
O776 O 0.46415001153945923 0.6052500009536743 0.625
O777 O 0.7141500115394592 0.10525000095367432 0.125
O778 O 0.7141500115394592 0.10525000095367432 0.625
O779 O 0.7141500115394592 0.6052500009536743 0.125
O780 O 0.7141500115394592 0.6052500009536743 0.625
O781 O 0.9641500115394592 0.10525000095367432 0.125
O782 O 0.9641500115394592 0.10525000095367432 0.625
O783 O 0.9641500115394592 0.6052500009536743 0.125
O784 O 0.9641500115394592 0.6052500009536743 0.625
O785 O 0.21414999663829803 0.14474999904632568 0.375
O786 O 0.21414999663829803 0.14474999904632568 0.875
O787 O 0.21414999663829803 0.6447499990463257 0.375
O788 O 0.21414999663829803 0.6447499990463257 0.875
O789 O 0.46415001153945923 0.14474999904632568 0.375
O790 O 0.46415001153945923 0.14474999904632568 0.875
O791 O 0.46415001153945923 0.6447499990463257 0.375
O792 O 0.46415001153945923 0.6447499990463257 0.875
O793 O 0.7141500115394592 0.14474999904632568 0.375
O794 O 0.7141500115394592 0.14474999904632568 0.875
O795 O 0.7141500115394592 0.6447499990463257 0.375
O796 O 0.7141500115394592 0.6447499990463257 0.875
O797 O 0.9641500115394592 0.14474999904632568 0.375
O798 O 0.9641500115394592 0.14474999904632568 0.875
O799 O 0.9641500115394592 0.6447499990463257 0.375
O800 O 0.9641500115394592 0.6447499990463257 0.875
O801 O 0.2234250009059906 0.08380000293254852 0.3201499879360199
O802 O 0.2234250009059906 0.08380000293254852 0.8201500177383423
O803 O 0.2234250009059906 0.5838000178337097 0.3201499879360199
O804 O 0.2234250009059906 0.5838000178337097 0.8201500177383423
O805 O 0.4734250009059906 0.08380000293254852 0.3201499879360199
O806 O 0.4734250009059906 0.08380000293254852 0.8201500177383423
O807 O 0.4734250009059906 0.5838000178337097 0.3201499879360199
O808 O 0.4734250009059906 0.5838000178337097 0.8201500177383423
O809 O 0.7234249711036682 0.08380000293254852 0.3201499879360199
O810 O 0.7234249711036682 0.08380000293254852 0.8201500177383423
O811 O 0.7234249711036682 0.5838000178337097 0.3201499879360199
O812 O 0.7234249711036682 0.5838000178337097 0.8201500177383423
O813 O 0.9734249711036682 0.08380000293254852 0.3201499879360199
O814 O 0.9734249711036682 0.08380000293254852 0.8201500177383423
O815 O 0.9734249711036682 0.5838000178337097 0.3201499879360199
O816 O 0.9734249711036682 0.5838000178337097 0.8201500177383423
O817 O 0.2234250009059906 0.08380000293254852 0.4298500120639801
O818 O 0.2234250009059906 0.08380000293254852 0.9298499822616577
O819 O 0.2234250009059906 0.5838000178337097 0.4298500120639801
O820 O 0.2234250009059906 0.5838000178337097 0.9298499822616577
O821 O 0.4734250009059906 0.08380000293254852 0.4298500120639801
O822 O 0.4734250009059906 0.08380000293254852 0.9298499822616577
O823 O 0.4734250009059906 0.5838000178337097 0.4298500120639801
O824 O 0.4734250009059906 0.5838000178337097 0.9298499822616577
O825 O 0.7234249711036682 0.08380000293254852 0.4298500120639801
O826 O 0.7234249711036682 0.08380000293254852 0.9298499822616577
O827 O 0.7234249711036682 0.5838000178337097 0.4298500120639801
O828 O 0.7234249711036682 0.5838000178337097 0.9298499822616577
O829 O 0.9734249711036682 0.08380000293254852 0.4298500120639801
O830 O 0.9734249711036682 0.08380000293254852 0.9298499822616577
O831 O 0.9734249711036682 0.5838000178337097 0.4298500120639801
O832 O 0.9734249711036682 0.5838000178337097 0.9298499822616577
O833 O 0.2234250009059906 0.16619999706745148 0.07015000283718109
O834 O 0.2234250009059906 0.16619999706745148 0.5701500177383423
O835 O 0.2234250009059906 0.6661999821662903 0.07015000283718109
O836 O 0.2234250009059906 0.6661999821662903 0.5701500177383423
O837 O 0.4734250009059906 0.16619999706745148 0.07015000283718109
O838 O 0.4734250009059906 0.16619999706745148 0.5701500177383423
O839 O 0.4734250009059906 0.6661999821662903 0.07015000283718109
O840 O 0.4734250009059906 0.6661999821662903 0.5701500177383423
O841 O 0.7234249711036682 0.16619999706745148 0.07015000283718109
O842 O 0.7234249711036682 0.16619999706745148 0.5701500177383423
O843 O 0.7234249711036682 0.6661999821662903 0.07015000283718109
O844 O 0.7234249711036682 0.6661999821662903 0.5701500177383423
O845 O 0.9734249711036682 0.16619999706745148 0.07015000283718109
O846 O 0.9734249711036682 0.16619999706745148 0.5701500177383423
O847 O 0.9734249711036682 0.6661999821662903 0.07015000283718109
O848 O 0.9734249711036682 0.6661999821662903 0.5701500177383423
O849 O 0.2234250009059906 0.16619999706745148 0.1798499971628189
O850 O 0.2234250009059906 0.16619999706745148 0.6798499822616577
O851 O 0.2234250009059906 0.6661999821662903 0.1798499971628189
O852 O 0.2234250009059906 0.6661999821662903 0.6798499822616577
O853 O 0.4734250009059906 0.16619999706745148 0.1798499971628189
O854 O 0.4734250009059906 0.16619999706745148 0.6798499822616577
O855 O 0.4734250009059906 0.6661999821662903 0.1798499971628189
O856 O 0.4734250009059906 0.6661999821662903 0.6798499822616577
O857 O 0.7234249711036682 0.16619999706745148 0.1798499971628189
O858 O 0.7234249711036682 0.16619999706745148 0.6798499822616577
O859 O 0.7234249711036682 0.6661999821662903 0.1798499971628189
O860 O 0.7234249711036682 0.6661999821662903 0.6798499822616577
O861 O 0.9734249711036682 0.16619999706745148 0.1798499971628189
O862 O 0.9734249711036682 0.16619999706745148 0.6798499822616577
O863 O 0.9734249711036682 0.6661999821662903 0.1798499971628189
O864 O 0.9734249711036682 0.6661999821662903 0.6798499822616577
O865 O 0.22922499477863312 0.33945000171661377 0.06530000269412994
O866 O 0.22922499477863312 0.33945000171661377 0.5652999877929688
O867 O 0.22922499477863312 0.8394500017166138 0.06530000269412994
O868 O 0.22922499477863312 0.8394500017166138 0.5652999877929688
O869 O 0.4792250096797943 0.33945000171661377 0.06530000269412994
O870 O 0.4792250096797943 0.33945000171661377 0.5652999877929688
O871 O 0.4792250096797943 0.8394500017166138 0.06530000269412994
O872 O 0.4792250096797943 0.8394500017166138 0.5652999877929688
O873 O 0.7292249798774719 0.33945000171661377 0.06530000269412994
O874 O 0.7292249798774719 0.33945000171661377 0.5652999877929688
O875 O 0.7292249798774719 0.8394500017166138 0.06530000269412994
O876 O 0.7292249798774719 0.8394500017166138 0.5652999877929688
O877 O 0.9792249798774719 0.33945000171661377 0.06530000269412994
O878 O 0.9792249798774719 0.33945000171661377 0.5652999877929688
O879 O 0.9792249798774719 0.8394500017166138 0.06530000269412994
O880 O 0.9792249798774719 0.8394500017166138 0.5652999877929688
O881 O 0.22922499477863312 0.33945000171661377 0.18469999730587006
O882 O 0.22922499477863312 0.33945000171661377 0.6847000122070312
O883 O 0.22922499477863312 0.8394500017166138 0.18469999730587006
O884 O 0.22922499477863312 0.8394500017166138 0.6847000122070312
O885 O 0.4792250096797943 0.33945000171661377 0.18469999730587006
O886 O 0.4792250096797943 0.33945000171661377 0.6847000122070312
O887 O 0.4792250096797943 0.8394500017166138 0.18469999730587006
O888 O 0.4792250096797943 0.8394500017166138 0.6847000122070312
O889 O 0.7292249798774719 0.33945000171661377 0.18469999730587006
O890 O 0.7292249798774719 0.33945000171661377 0.6847000122070312
O891 O 0.7292249798774719 0.8394500017166138 0.18469999730587006
O892 O 0.7292249798774719 0.8394500017166138 0.6847000122070312
O893 O 0.9792249798774719 0.33945000171661377 0.18469999730587006
O894 O 0.9792249798774719 0.33945000171661377 0.6847000122070312
O895 O 0.9792249798774719 0.8394500017166138 0.18469999730587006
O896 O 0.9792249798774719 0.8394500017166138 0.6847000122070312
O897 O 0.22922499477863312 0.41054999828338623 0.31529998779296875
O898 O 0.22922499477863312 0.41054999828338623 0.8152999877929688
O899 O 0.22922499477863312 0.9105499982833862 0.31529998779296875
O900 O 0.22922499477863312 0.9105499982833862 0.8152999877929688
O901 O 0.4792250096797943 0.41054999828338623 0.31529998779296875
O902 O 0.4792250096797943 0.41054999828338623 0.8152999877929688
O903 O 0.4792250096797943 0.9105499982833862 0.31529998779296875
O904 O 0.4792250096797943 0.9105499982833862 0.8152999877929688
O905 O 0.7292249798774719 0.41054999828338623 0.31529998779296875
O906 O 0.7292249798774719 0.41054999828338623 0.8152999877929688
O907 O 0.7292249798774719 0.9105499982833862 0.31529998779296875
O908 O 0.7292249798774719 0.9105499982833862 0.8152999877929688
O909 O 0.9792249798774719 0.41054999828338623 0.31529998779296875
O910 O 0.9792249798774719 0.41054999828338623 0.8152999877929688
O911 O 0.9792249798774719 0.9105499982833862 0.31529998779296875
O912 O 0.9792249798774719 0.9105499982833862 0.8152999877929688
O913 O 0.22922499477863312 0.41054999828338623 0.43470001220703125
O914 O 0.22922499477863312 0.41054999828338623 0.9347000122070312
O915 O 0.22922499477863312 0.9105499982833862 0.43470001220703125
O916 O 0.22922499477863312 0.9105499982833862 0.9347000122070312
O917 O 0.4792250096797943 0.41054999828338623 0.43470001220703125
O918 O 0.4792250096797943 0.41054999828338623 0.9347000122070312
O919 O 0.4792250096797943 0.9105499982833862 0.43470001220703125
O920 O 0.4792250096797943 0.9105499982833862 0.9347000122070312
O921 O 0.7292249798774719 0.41054999828338623 0.43470001220703125
O922 O 0.7292249798774719 0.41054999828338623 0.9347000122070312
O923 O 0.7292249798774719 0.9105499982833862 0.43470001220703125
O924 O 0.7292249798774719 0.9105499982833862 0.9347000122070312
O925 O 0.9792249798774719 0.41054999828338623 0.43470001220703125
O926 O 0.9792249798774719 0.41054999828338623 0.9347000122070312
O927 O 0.9792249798774719 0.9105499982833862 0.43470001220703125
O928 O 0.9792249798774719 0.9105499982833862 0.9347000122070312
O929 O 0.2294750064611435 0.2521499991416931 0.052149999886751175
O930 O 0.2294750064611435 0.2521499991416931 0.5521500110626221
O931 O 0.2294750064611435 0.7521499991416931 0.052149999886751175
O932 O 0.2294750064611435 0.7521499991416931 0.5521500110626221
O933 O 0.4794749915599823 0.2521499991416931 0.052149999886751175
O934 O 0.4794749915599823 0.2521499991416931 0.5521500110626221
O935 O 0.4794749915599823 0.7521499991416931 0.052149999886751175
O936 O 0.4794749915599823 0.7521499991416931 0.5521500110626221
O937 O 0.7294750213623047 0.2521499991416931 0.052149999886751175
O938 O 0.7294750213623047 0.2521499991416931 0.5521500110626221
O939 O 0.7294750213623047 0.7521499991416931 0.052149999886751175
O940 O 0.7294750213623047 0.7521499991416931 0.5521500110626221
O941 O 0.9794750213623047 0.2521499991416931 0.052149999886751175
O942 O 0.9794750213623047 0.2521499991416931 0.5521500110626221
O943 O 0.9794750213623047 0.7521499991416931 0.052149999886751175
O944 O 0.9794750213623047 0.7521499991416931 0.5521500110626221
O945 O 0.2294750064611435 0.2521499991416931 0.19785000383853912
O946 O 0.2294750064611435 0.2521499991416931 0.6978499889373779
O947 O 0.2294750064611435 0.7521499991416931 0.19785000383853912
O948 O 0.2294750064611435 0.7521499991416931 0.6978499889373779
O949 O 0.4794749915599823 0.2521499991416931 0.19785000383853912
O950 O 0.4794749915599823 0.2521499991416931 0.6978499889373779
O951 O 0.4794749915599823 0.7521499991416931 0.19785000383853912
O952 O 0.4794749915599823 0.7521499991416931 0.6978499889373779
O953 O 0.7294750213623047 0.2521499991416931 0.19785000383853912
O954 O 0.7294750213623047 0.2521499991416931 0.6978499889373779
O955 O 0.7294750213623047 0.7521499991416931 0.19785000383853912
O956 O 0.7294750213623047 0.7521499991416931 0.6978499889373779
O957 O 0.9794750213623047 0.2521499991416931 0.19785000383853912
O958 O 0.9794750213623047 0.2521499991416931 0.6978499889373779
O959 O 0.9794750213623047 0.7521499991416931 0.19785000383853912
O960 O 0.9794750213623047 0.7521499991416931 0.6978499889373779
O961 O 0.2294750064611435 0.4978500008583069 0.30215001106262207
O962 O 0.2294750064611435 0.4978500008583069 0.8021500110626221
O963 O 0.2294750064611435 0.9978500008583069 0.30215001106262207
O964 O 0.2294750064611435 0.9978500008583069 0.8021500110626221
O965 O 0.4794749915599823 0.4978500008583069 0.30215001106262207
O966 O 0.4794749915599823 0.4978500008583069 0.8021500110626221
O967 O 0.4794749915599823 0.9978500008583069 0.30215001106262207
O968 O 0.4794749915599823 0.9978500008583069 0.8021500110626221
O969 O 0.7294750213623047 0.4978500008583069 0.30215001106262207
O970 O 0.7294750213623047 0.4978500008583069 0.8021500110626221
O971 O 0.7294750213623047 0.9978500008583069 0.30215001106262207
O972 O 0.7294750213623047 0.9978500008583069 0.8021500110626221
O973 O 0.9794750213623047 0.4978500008583069 0.30215001106262207
O974 O 0.9794750213623047 0.4978500008583069 0.8021500110626221
O975 O 0.9794750213623047 0.9978500008583069 0.30215001106262207
O976 O 0.9794750213623047 0.9978500008583069 0.8021500110626221
O977 O 0.2294750064611435 0.4978500008583069 0.44784998893737793
O978 O 0.2294750064611435 0.4978500008583069 0.9478499889373779
O979 O 0.2294750064611435 0.9978500008583069 0.44784998893737793
O980 O 0.2294750064611435 0.9978500008583069 0.9478499889373779
O981 O 0.4794749915599823 0.4978500008583069 0.44784998893737793
O982 O 0.4794749915599823 0.4978500008583069 0.9478499889373779
O983 O 0.4794749915599823 0.9978500008583069 0.44784998893737793
O984 O 0.4794749915599823 0.9978500008583069 0.9478499889373779
O985 O 0.7294750213623047 0.4978500008583069 0.44784998893737793
O986 O 0.7294750213623047 0.4978500008583069 0.9478499889373779
O987 O 0.7294750213623047 0.9978500008583069 0.44784998893737793
O988 O 0.7294750213623047 0.9978500008583069 0.9478499889373779
O989 O 0.9794750213623047 0.4978500008583069 0.44784998893737793
O990 O 0.9794750213623047 0.4978500008583069 0.9478499889373779
O991 O 0.9794750213623047 0.9978500008583069 0.44784998893737793
O992 O 0.9794750213623047 0.9978500008583069 0.9478499889373779
O993 O 0.2326750010251999 0.3089500069618225 0.2561500072479248
O994 O 0.2326750010251999 0.3089500069618225 0.7561500072479248
O995 O 0.2326750010251999 0.8089500069618225 0.2561500072479248
O996 O 0.2326750010251999 0.8089500069618225 0.7561500072479248
O997 O 0.4826749861240387 0.3089500069618225 0.2561500072479248
O998 O 0.4826749861240387 0.3089500069618225 0.7561500072479248
O999 O 0.4826749861240387 0.8089500069618225 0.2561500072479248
O1000 O 0.4826749861240387 0.8089500069618225 0.7561500072479248
O1001 O 0.7326750159263611 0.3089500069618225 0.2561500072479248
O1002 O 0.7326750159263611 0.3089500069618225 0.7561500072479248
O1003 O 0.7326750159263611 0.8089500069618225 0.2561500072479248
O1004 O 0.7326750159263611 0.8089500069618225 0.7561500072479248
O1005 O 0.9826750159263611 0.3089500069618225 0.2561500072479248
O1006 O 0.9826750159263611 0.3089500069618225 0.7561500072479248
O1007 O 0.9826750159263611 0.8089500069618225 0.2561500072479248
O1008 O 0.9826750159263611 0.8089500069618225 0.7561500072479248
O1009 O 0.2326750010251999 0.3089500069618225 0.4938499927520752
O1010 O 0.2326750010251999 0.3089500069618225 0.9938499927520752
O1011 O 0.2326750010251999 0.8089500069618225 0.4938499927520752
O1012 O 0.2326750010251999 0.8089500069618225 0.9938499927520752
O1013 O 0.4826749861240387 0.3089500069618225 0.4938499927520752
O1014 O 0.4826749861240387 0.3089500069618225 0.9938499927520752
O1015 O 0.4826749861240387 0.8089500069618225 0.4938499927520752
O1016 O 0.4826749861240387 0.8089500069618225 0.9938499927520752
O1017 O 0.7326750159263611 0.3089500069618225 0.4938499927520752
O1018 O 0.7326750159263611 0.3089500069618225 0.9938499927520752
O1019 O 0.7326750159263611 0.8089500069618225 0.4938499927520752
O1020 O 0.7326750159263611 0.8089500069618225 0.9938499927520752
O1021 O 0.9826750159263611 0.3089500069618225 0.4938499927520752
O1022 O 0.9826750159263611 0.3089500069618225 0.9938499927520752
O1023 O 0.9826750159263611 0.8089500069618225 0.4938499927520752
O1024 O 0.9826750159263611 0.8089500069618225 0.9938499927520752
O1025 O 0.2326750010251999 0.4410499930381775 0.006149999797344208
O1026 O 0.2326750010251999 0.4410499930381775 0.5061500072479248
O1027 O 0.2326750010251999 0.9410499930381775 0.006149999797344208
O1028 O 0.2326750010251999 0.9410499930381775 0.5061500072479248
O1029 O 0.4826749861240387 0.4410499930381775 0.006149999797344208
O1030 O 0.4826749861240387 0.4410499930381775 0.5061500072479248
O1031 O 0.4826749861240387 0.9410499930381775 0.006149999797344208
O1032 O 0.4826749861240387 0.9410499930381775 0.5061500072479248
O1033 O 0.7326750159263611 0.4410499930381775 0.006149999797344208
O1034 O 0.7326750159263611 0.4410499930381775 0.5061500072479248
O1035 O 0.7326750159263611 0.9410499930381775 0.006149999797344208
O1036 O 0.7326750159263611 0.9410499930381775 0.5061500072479248
O1037 O 0.9826750159263611 0.4410499930381775 0.006149999797344208
O1038 O 0.9826750159263611 0.4410499930381775 0.5061500072479248
O1039 O 0.9826750159263611 0.9410499930381775 0.006149999797344208
O1040 O 0.9826750159263611 0.9410499930381775 0.5061500072479248
O1041 O 0.2326750010251999 0.4410499930381775 0.2438499927520752
O1042 O 0.2326750010251999 0.4410499930381775 0.7438499927520752
O1043 O 0.2326750010251999 0.9410499930381775 0.2438499927520752
O1044 O 0.2326750010251999 0.9410499930381775 0.7438499927520752
O1045 O 0.4826749861240387 0.4410499930381775 0.2438499927520752
O1046 O 0.4826749861240387 0.4410499930381775 0.7438499927520752
O1047 O 0.4826749861240387 0.9410499930381775 0.2438499927520752
O1048 O 0.4826749861240387 0.9410499930381775 0.7438499927520752
O1049 O 0.7326750159263611 0.4410499930381775 0.2438499927520752
O1050 O 0.7326750159263611 0.4410499930381775 0.7438499927520752
O1051 O 0.7326750159263611 0.9410499930381775 0.2438499927520752
O1052 O 0.7326750159263611 0.9410499930381775 0.7438499927520752
O1053 O 0.9826750159263611 0.4410499930381775 0.2438499927520752
O1054 O 0.9826750159263611 0.4410499930381775 0.7438499927520752
O1055 O 0.9826750159263611 0.9410499930381775 0.2438499927520752
O1056 O 0.9826750159263611 0.9410499930381775 0.7438499927520752
Si1057 Si 0.026724999770522118 0.2980000078678131 0.2851499915122986
Si1058 Si 0.026724999770522118 0.2980000078678131 0.7851499915122986
Si1059 Si 0.026724999770522118 0.7979999780654907 0.2851499915122986
Si1060 Si 0.026724999770522118 0.7979999780654907 0.7851499915122986
Si1061 Si 0.27672499418258667 0.2980000078678131 0.2851499915122986
Si1062 Si 0.27672499418258667 0.2980000078678131 0.7851499915122986
Si1063 Si 0.27672499418258667 0.7979999780654907 0.2851499915122986
Si1064 Si 0.27672499418258667 0.7979999780654907 0.7851499915122986
Si1065 Si 0.5267249941825867 0.2980000078678131 0.2851499915122986
Si1066 Si 0.5267249941825867 0.2980000078678131 0.7851499915122986
Si1067 Si 0.5267249941825867 0.7979999780654907 0.2851499915122986
Si1068 Si 0.5267249941825867 0.7979999780654907 0.7851499915122986
Si1069 Si 0.7767249941825867 0.2980000078678131 0.2851499915122986
Si1070 Si 0.7767249941825867 0.2980000078678131 0.7851499915122986
Si1071 Si 0.7767249941825867 0.7979999780654907 0.2851499915122986
Si1072 Si 0.7767249941825867 0.7979999780654907 0.7851499915122986
Si1073 Si 0.026724999770522118 0.2980000078678131 0.4648500084877014
Si1074 Si 0.026724999770522118 0.2980000078678131 0.9648500084877014
Si1075 Si 0.026724999770522118 0.7979999780654907 0.4648500084877014
Si1076 Si 0.026724999770522118 0.7979999780654907 0.9648500084877014
Si1077 Si 0.27672499418258667 0.2980000078678131 0.4648500084877014
Si1078 Si 0.27672499418258667 0.2980000078678131 0.9648500084877014
Si1079 Si 0.27672499418258667 0.7979999780654907 0.4648500084877014
Si1080 Si 0.27672499418258667 0.7979999780654907 0.9648500084877014
Si1081 Si 0.5267249941825867 0.2980000078678131 0.4648500084877014
Si1082 Si 0.5267249941825867 0.2980000078678131 0.9648500084877014
Si1083 Si 0.5267249941825867 0.7979999780654907 0.4648500084877014
Si1084 Si 0.5267249941825867 0.7979999780654907 0.9648500084877014
Si1085 Si 0.7767249941825867 0.2980000078678131 0.4648500084877014
Si1086 Si 0.7767249941825867 0.2980000078678131 0.9648500084877014
Si1087 Si 0.7767249941825867 0.7979999780654907 0.4648500084877014
Si1088 Si 0.7767249941825867 0.7979999780654907 0.9648500084877014
Si1089 Si 0.026724999770522118 0.4519999921321869 0.03514999896287918
Si1090 Si 0.026724999770522118 0.4519999921321869 0.5351499915122986
Si1091 Si 0.026724999770522118 0.9520000219345093 0.03514999896287918
Si1092 Si 0.026724999770522118 0.9520000219345093 0.5351499915122986
Si1093 Si 0.27672499418258667 0.4519999921321869 0.03514999896287918
Si1094 Si 0.27672499418258667 0.4519999921321869 0.5351499915122986
Si1095 Si 0.27672499418258667 0.9520000219345093 0.03514999896287918
Si1096 Si 0.27672499418258667 0.9520000219345093 0.5351499915122986
Si1097 Si 0.5267249941825867 0.4519999921321869 0.03514999896287918
Si1098 Si 0.5267249941825867 0.4519999921321869 0.5351499915122986
Si1099 Si 0.5267249941825867 0.9520000219345093 0.03514999896287918
Si1100 Si 0.5267249941825867 0.9520000219345093 0.5351499915122986
Si1101 Si 0.7767249941825867 0.4519999921321869 0.03514999896287918
Si1102 Si 0.7767249941825867 0.4519999921321869 0.5351499915122986
Si1103 Si 0.7767249941825867 0.9520000219345093 0.03514999896287918
Si1104 Si 0.7767249941825867 0.9520000219345093 0.5351499915122986
Si1105 Si 0.026724999770522118 0.4519999921321869 0.21484999358654022
Si1106 Si 0.026724999770522118 0.4519999921321869 0.7148500084877014
Si1107 Si 0.026724999770522118 0.9520000219345093 0.21484999358654022
Si1108 Si 0.026724999770522118 0.9520000219345093 0.7148500084877014
Si1109 Si 0.27672499418258667 0.4519999921321869 0.21484999358654022
Si1110 Si 0.27672499418258667 0.4519999921321869 0.7148500084877014
Si1111 Si 0.27672499418258667 0.9520000219345093 0.21484999358654022
Si1112 Si 0.27672499418258667 0.9520000219345093 0.7148500084877014
Si1113 Si 0.5267249941825867 0.4519999921321869 0.21484999358654022
Si1114 Si 0.5267249941825867 0.4519999921321869 0.7148500084877014
Si1115 Si 0.5267249941825867 0.9520000219345093 0.21484999358654022
Si1116 Si 0.5267249941825867 0.9520000219345093 0.7148500084877014
Si1117 Si 0.7767249941825867 0.4519999921321869 0.21484999358654022
Si1118 Si 0.7767249941825867 0.4519999921321869 0.7148500084877014
Si1119 Si 0.7767249941825867 0.9520000219345093 0.21484999358654022
Si1120 Si 0.7767249941825867 0.9520000219345093 0.7148500084877014
Si1121 Si 0.02865000069141388 0.36309999227523804 0.07919999957084656
Si1122 Si 0.02865000069141388 0.36309999227523804 0.579200029373169
Si1123 Si 0.02865000069141388 0.863099992275238 0.07919999957084656
Si1124 Si 0.02865000069141388 0.863099992275238 0.579200029373169
Si1125 Si 0.2786499857902527 0.36309999227523804 0.07919999957084656
Si1126 Si 0.2786499857902527 0.36309999227523804 0.579200029373169
Si1127 Si 0.2786499857902527 0.863099992275238 0.07919999957084656
Si1128 Si 0.2786499857902527 0.863099992275238 0.579200029373169
Si1129 Si 0.5286499857902527 0.36309999227523804 0.07919999957084656
Si1130 Si 0.5286499857902527 0.36309999227523804 0.579200029373169
Si1131 Si 0.5286499857902527 0.863099992275238 0.07919999957084656
Si1132 Si 0.5286499857902527 0.863099992275238 0.579200029373169
Si1133 Si 0.7786499857902527 0.36309999227523804 0.07919999957084656
Si1134 Si 0.7786499857902527 0.36309999227523804 0.579200029373169
Si1135 Si 0.7786499857902527 0.863099992275238 0.07919999957084656
Si1136 Si 0.7786499857902527 0.863099992275238 0.579200029373169
Si1137 Si 0.02865000069141388 0.36309999227523804 0.17080000042915344
Si1138 Si 0.02865000069141388 0.36309999227523804 0.670799970626831
Si1139 Si 0.02865000069141388 0.863099992275238 0.17080000042915344
Si1140 Si 0.02865000069141388 0.863099992275238 0.670799970626831
Si1141 Si 0.2786499857902527 0.36309999227523804 0.17080000042915344
Si1142 Si 0.2786499857902527 0.36309999227523804 0.670799970626831
Si1143 Si 0.2786499857902527 0.863099992275238 0.17080000042915344
Si1144 Si 0.2786499857902527 0.863099992275238 0.670799970626831
Si1145 Si 0.5286499857902527 0.36309999227523804 0.17080000042915344
Si1146 Si 0.5286499857902527 0.36309999227523804 0.670799970626831
Si1147 Si 0.5286499857902527 0.863099992275238 0.17080000042915344
Si1148 Si 0.5286499857902527 0.863099992275238 0.670799970626831
Si1149 Si 0.7786499857902527 0.36309999227523804 0.17080000042915344
Si1150 Si 0.7786499857902527 0.36309999227523804 0.670799970626831
Si1151 Si 0.7786499857902527 0.863099992275238 0.17080000042915344
Si1152 Si 0.7786499857902527 0.863099992275238 0.670799970626831
Si1153 Si 0.02865000069141388 0.38690000772476196 0.32919999957084656
Si1154 Si 0.02865000069141388 0.38690000772476196 0.829200029373169
Si1155 Si 0.02865000069141388 0.886900007724762 0.32919999957084656
Si1156 Si 0.02865000069141388 0.886900007724762 0.829200029373169
Si1157 Si 0.2786499857902527 0.38690000772476196 0.32919999957084656
Si1158 Si 0.2786499857902527 0.38690000772476196 0.829200029373169
Si1159 Si 0.2786499857902527 0.886900007724762 0.32919999957084656
Si1160 Si 0.2786499857902527 0.886900007724762 0.829200029373169
Si1161 Si 0.5286499857902527 0.38690000772476196 0.32919999957084656
Si1162 Si 0.5286499857902527 0.38690000772476196 0.829200029373169
Si1163 Si 0.5286499857902527 0.886900007724762 0.32919999957084656
Si1164 Si 0.5286499857902527 0.886900007724762 0.829200029373169
Si1165 Si 0.7786499857902527 0.38690000772476196 0.32919999957084656
Si1166 Si 0.7786499857902527 0.38690000772476196 0.829200029373169
Si1167 Si 0.7786499857902527 0.886900007724762 0.32919999957084656
Si1168 Si 0.7786499857902527 0.886900007724762 0.829200029373169
Si1169 Si 0.02865000069141388 0.38690000772476196 0.42080000042915344
Si1170 Si 0.02865000069141388 0.38690000772476196 0.920799970626831
Si1171 Si 0.02865000069141388 0.886900007724762 0.42080000042915344
Si1172 Si 0.02865000069141388 0.886900007724762 0.920799970626831
Si1173 Si 0.2786499857902527 0.38690000772476196 0.42080000042915344
Si1174 Si 0.2786499857902527 0.38690000772476196 0.920799970626831
Si1175 Si 0.2786499857902527 0.886900007724762 0.42080000042915344
Si1176 Si 0.2786499857902527 0.886900007724762 0.920799970626831
Si1177 Si 0.5286499857902527 0.38690000772476196 0.42080000042915344
Si1178 Si 0.5286499857902527 0.38690000772476196 0.920799970626831
Si1179 Si 0.5286499857902527 0.886900007724762 0.42080000042915344
Si1180 Si 0.5286499857902527 0.886900007724762 0.920799970626831
Si1181 Si 0.7786499857902527 0.38690000772476196 0.42080000042915344
Si1182 Si 0.7786499857902527 0.38690000772476196 0.920799970626831
Si1183 Si 0.7786499857902527 0.886900007724762 0.42080000042915344
Si1184 Si 0.7786499857902527 0.886900007724762 0.920799970626831
Si1185 Si 0.03892499953508377 0.05025000125169754 0.03660000115633011
Si1186 Si 0.03892499953508377 0.05025000125169754 0.5365999937057495
Si1187 Si 0.03892499953508377 0.5502499938011169 0.03660000115633011
Si1188 Si 0.03892499953508377 0.5502499938011169 0.5365999937057495
Si1189 Si 0.2889249920845032 0.05025000125169754 0.03660000115633011
Si1190 Si 0.2889249920845032 0.05025000125169754 0.5365999937057495
Si1191 Si 0.2889249920845032 0.5502499938011169 0.03660000115633011
Si1192 Si 0.2889249920845032 0.5502499938011169 0.5365999937057495
Si1193 Si 0.5389249920845032 0.05025000125169754 0.03660000115633011
Si1194 Si 0.5389249920845032 0.05025000125169754 0.5365999937057495
Si1195 Si 0.5389249920845032 0.5502499938011169 0.03660000115633011
Si1196 Si 0.5389249920845032 0.5502499938011169 0.5365999937057495
Si1197 Si 0.7889249920845032 0.05025000125169754 0.03660000115633011
Si1198 Si 0.7889249920845032 0.05025000125169754 0.5365999937057495
Si1199 Si 0.7889249920845032 0.5502499938011169 0.03660000115633011
Si1200 Si 0.7889249920845032 0.5502499938011169 0.5365999937057495
Si1201 Si 0.03892499953508377 0.05025000125169754 0.2134000062942505
Si1202 Si 0.03892499953508377 0.05025000125169754 0.7134000062942505
Si1203 Si 0.03892499953508377 0.5502499938011169 0.2134000062942505
Si1204 Si 0.03892499953508377 0.5502499938011169 0.7134000062942505
Si1205 Si 0.2889249920845032 0.05025000125169754 0.2134000062942505
Si1206 Si 0.2889249920845032 0.05025000125169754 0.7134000062942505
Si1207 Si 0.2889249920845032 0.5502499938011169 0.2134000062942505
Si1208 Si 0.2889249920845032 0.5502499938011169 0.7134000062942505
Si1209 Si 0.5389249920845032 0.05025000125169754 0.2134000062942505
Si1210 Si 0.5389249920845032 0.05025000125169754 0.7134000062942505
Si1211 Si 0.5389249920845032 0.5502499938011169 0.2134000062942505
Si1212 Si 0.5389249920845032 0.5502499938011169 0.7134000062942505
Si1213 Si 0.7889249920845032 0.05025000125169754 0.2134000062942505
Si1214 Si 0.7889249920845032 0.05025000125169754 0.7134000062942505
Si1215 Si 0.7889249920845032 0.5502499938011169 0.2134000062942505
Si1216 Si 0.7889249920845032 0.5502499938011169 0.7134000062942505
Si1217 Si 0.03892499953508377 0.19975000619888306 0.2865999937057495
Si1218 Si 0.03892499953508377 0.19975000619888306 0.7865999937057495
Si1219 Si 0.03892499953508377 0.6997500061988831 0.2865999937057495
Si1220 Si 0.03892499953508377 0.6997500061988831 0.7865999937057495
Si1221 Si 0.2889249920845032 0.19975000619888306 0.2865999937057495
Si1222 Si 0.2889249920845032 0.19975000619888306 0.7865999937057495
Si1223 Si 0.2889249920845032 0.6997500061988831 0.2865999937057495
Si1224 Si 0.2889249920845032 0.6997500061988831 0.7865999937057495
Si1225 Si 0.5389249920845032 0.19975000619888306 0.2865999937057495
Si1226 Si 0.5389249920845032 0.19975000619888306 0.7865999937057495
Si1227 Si 0.5389249920845032 0.6997500061988831 0.2865999937057495
Si1228 Si 0.5389249920845032 0.6997500061988831 0.7865999937057495
Si1229 Si 0.7889249920845032 0.19975000619888306 0.2865999937057495
Si1230 Si 0.7889249920845032 0.19975000619888306 0.7865999937057495
Si1231 Si 0.7889249920845032 0.6997500061988831 0.2865999937057495
Si1232 Si 0.7889249920845032 0.6997500061988831 0.7865999937057495
Si1233 Si 0.03892499953508377 0.19975000619888306 0.4634000062942505
Si1234 Si 0.03892499953508377 0.19975000619888306 0.9634000062942505
Si1235 Si 0.03892499953508377 0.6997500061988831 0.4634000062942505
Si1236 Si 0.03892499953508377 0.6997500061988831 0.9634000062942505
Si1237 Si 0.2889249920845032 0.19975000619888306 0.4634000062942505
Si1238 Si 0.2889249920845032 0.19975000619888306 0.9634000062942505
Si1239 Si 0.2889249920845032 0.6997500061988831 0.4634000062942505
Si1240 Si 0.2889249920845032 0.6997500061988831 0.9634000062942505
Si1241 Si 0.5389249920845032 0.19975000619888306 0.4634000062942505
Si1242 Si 0.5389249920845032 0.19975000619888306 0.9634000062942505
Si1243 Si 0.5389249920845032 0.6997500061988831 0.4634000062942505
Si1244 Si 0.5389249920845032 0.6997500061988831 0.9634000062942505
Si1245 Si 0.7889249920845032 0.19975000619888306 0.4634000062942505
Si1246 Si 0.7889249920845032 0.19975000619888306 0.9634000062942505
Si1247 Si 0.7889249920845032 0.6997500061988831 0.4634000062942505
Si1248 Si 0.7889249920845032 0.6997500061988831 0.9634000062942505
Si1249 Si 0.10742499679327011 0.3292500078678131 0.019750000908970833
Si1250 Si 0.10742499679327011 0.3292500078678131 0.5197499990463257
Si1251 Si 0.10742499679327011 0.8292499780654907 0.019750000908970833
Si1252 Si 0.10742499679327011 0.8292499780654907 0.5197499990463257
Si1253 Si 0.3574250042438507 0.3292500078678131 0.019750000908970833
Si1254 Si 0.3574250042438507 0.3292500078678131 0.5197499990463257
Si1255 Si 0.3574250042438507 0.8292499780654907 0.019750000908970833
Si1256 Si 0.3574250042438507 0.8292499780654907 0.5197499990463257
Si1257 Si 0.6074249744415283 0.3292500078678131 0.019750000908970833
Si1258 Si 0.6074249744415283 0.3292500078678131 0.5197499990463257
Si1259 Si 0.6074249744415283 0.8292499780654907 0.019750000908970833
Si1260 Si 0.6074249744415283 0.8292499780654907 0.5197499990463257
Si1261 Si 0.8574249744415283 0.3292500078678131 0.019750000908970833
Si1262 Si 0.8574249744415283 0.3292500078678131 0.5197499990463257
Si1263 Si 0.8574249744415283 0.8292499780654907 0.019750000908970833
Si1264 Si 0.8574249744415283 0.8292499780654907 0.5197499990463257
Si1265 Si 0.10742499679327011 0.3292500078678131 0.23025000095367432
Si1266 Si 0.10742499679327011 0.3292500078678131 0.7302500009536743
Si1267 Si 0.10742499679327011 0.8292499780654907 0.23025000095367432
Si1268 Si 0.10742499679327011 0.8292499780654907 0.7302500009536743
Si1269 Si 0.3574250042438507 0.3292500078678131 0.23025000095367432
Si1270 Si 0.3574250042438507 0.3292500078678131 0.7302500009536743
Si1271 Si 0.3574250042438507 0.8292499780654907 0.23025000095367432
Si1272 Si 0.3574250042438507 0.8292499780654907 0.7302500009536743
Si1273 Si 0.6074249744415283 0.3292500078678131 0.23025000095367432
Si1274 Si 0.6074249744415283 0.3292500078678131 0.7302500009536743
Si1275 Si 0.6074249744415283 0.8292499780654907 0.23025000095367432
Si1276 Si 0.6074249744415283 0.8292499780654907 0.7302500009536743
Si1277 Si 0.8574249744415283 0.3292500078678131 0.23025000095367432
Si1278 Si 0.8574249744415283 0.3292500078678131 0.7302500009536743
Si1279 Si 0.8574249744415283 0.8292499780654907 0.23025000095367432
Si1280 Si 0.8574249744415283 0.8292499780654907 0.7302500009536743
Si1281 Si 0.10742499679327011 0.4207499921321869 0.2697499990463257
Si1282 Si 0.10742499679327011 0.4207499921321869 0.7697499990463257
Si1283 Si 0.10742499679327011 0.9207500219345093 0.2697499990463257
Si1284 Si 0.10742499679327011 0.9207500219345093 0.7697499990463257
Si1285 Si 0.3574250042438507 0.4207499921321869 0.2697499990463257
Si1286 Si 0.3574250042438507 0.4207499921321869 0.7697499990463257
Si1287 Si 0.3574250042438507 0.9207500219345093 0.2697499990463257
Si1288 Si 0.3574250042438507 0.9207500219345093 0.7697499990463257
Si1289 Si 0.6074249744415283 0.4207499921321869 0.2697499990463257
Si1290 Si 0.6074249744415283 0.4207499921321869 0.7697499990463257
Si1291 Si 0.6074249744415283 0.9207500219345093 0.2697499990463257
Si1292 Si 0.6074249744415283 0.9207500219345093 0.7697499990463257
Si1293 Si 0.8574249744415283 0.4207499921321869 0.2697499990463257
Si1294 Si 0.8574249744415283 0.4207499921321869 0.7697499990463257
Si1295 Si 0.8574249744415283 0.9207500219345093 0.2697499990463257
Si1296 Si 0.8574249744415283 0.9207500219345093 0.7697499990463257
Si1297 Si 0.10742499679327011 0.4207499921321869 0.4802500009536743
Si1298 Si 0.10742499679327011 0.4207499921321869 0.9802500009536743
Si1299 Si 0.10742499679327011 0.9207500219345093 0.4802500009536743
Si1300 Si 0.10742499679327011 0.9207500219345093 0.9802500009536743
Si1301 Si 0.3574250042438507 0.4207499921321869 0.4802500009536743
Si1302 Si 0.3574250042438507 0.4207499921321869 0.9802500009536743
Si1303 Si 0.3574250042438507 0.9207500219345093 0.4802500009536743
Si1304 Si 0.3574250042438507 0.9207500219345093 0.9802500009536743
Si1305 Si 0.6074249744415283 0.4207499921321869 0.4802500009536743
Si1306 Si 0.6074249744415283 0.4207499921321869 0.9802500009536743
Si1307 Si 0.6074249744415283 0.9207500219345093 0.4802500009536743
Si1308 Si 0.6074249744415283 0.9207500219345093 0.9802500009536743
Si1309 Si 0.8574249744415283 0.4207499921321869 0.4802500009536743
Si1310 Si 0.8574249744415283 0.4207499921321869 0.9802500009536743
Si1311 Si 0.8574249744415283 0.9207500219345093 0.4802500009536743
Si1312 Si 0.8574249744415283 0.9207500219345093 0.9802500009536743
Si1313 Si 0.1425749957561493 0.07925000041723251 0.019750000908970833
Si1314 Si 0.1425749957561493 0.07925000041723251 0.5197499990463257
Si1315 Si 0.1425749957561493 0.5792499780654907 0.019750000908970833
Si1316 Si 0.1425749957561493 0.5792499780654907 0.5197499990463257
Si1317 Si 0.3925749957561493 0.07925000041723251 0.019750000908970833
Si1318 Si 0.3925749957561493 0.07925000041723251 0.5197499990463257
Si1319 Si 0.3925749957561493 0.5792499780654907 0.019750000908970833
Si1320 Si 0.3925749957561493 0.5792499780654907 0.5197499990463257
Si1321 Si 0.6425750255584717 0.07925000041723251 0.019750000908970833
Si1322 Si 0.6425750255584717 0.07925000041723251 0.5197499990463257
Si1323 Si 0.6425750255584717 0.5792499780654907 0.019750000908970833
Si1324 Si 0.6425750255584717 0.5792499780654907 0.5197499990463257
Si1325 Si 0.8925750255584717 0.07925000041723251 0.019750000908970833
Si1326 Si 0.8925750255584717 0.07925000041723251 0.5197499990463257
Si1327 Si 0.8925750255584717 0.5792499780654907 0.019750000908970833
Si1328 Si 0.8925750255584717 0.5792499780654907 0.5197499990463257
Si1329 Si 0.1425749957561493 0.07925000041723251 0.23025000095367432
Si1330 Si 0.1425749957561493 0.07925000041723251 0.7302500009536743
Si1331 Si 0.1425749957561493 0.5792499780654907 0.23025000095367432
Si1332 Si 0.1425749957561493 0.5792499780654907 0.7302500009536743
Si1333 Si 0.3925749957561493 0.07925000041723251 0.23025000095367432
Si1334 Si 0.3925749957561493 0.07925000041723251 0.7302500009536743
Si1335 Si 0.3925749957561493 0.5792499780654907 0.23025000095367432
Si1336 Si 0.3925749957561493 0.5792499780654907 0.7302500009536743
Si1337 Si 0.6425750255584717 0.07925000041723251 0.23025000095367432
Si1338 Si 0.6425750255584717 0.07925000041723251 0.7302500009536743
Si1339 Si 0.6425750255584717 0.5792499780654907 0.23025000095367432
Si1340 Si 0.6425750255584717 0.5792499780654907 0.7302500009536743
Si1341 Si 0.8925750255584717 0.07925000041723251 0.23025000095367432
Si1342 Si 0.8925750255584717 0.07925000041723251 0.7302500009536743
Si1343 Si 0.8925750255584717 0.5792499780654907 0.23025000095367432
Si1344 Si 0.8925750255584717 0.5792499780654907 0.7302500009536743
Si1345 Si 0.1425749957561493 0.17075000703334808 0.2697499990463257
Si1346 Si 0.1425749957561493 0.17075000703334808 0.7697499990463257
Si1347 Si 0.1425749957561493 0.6707500219345093 0.2697499990463257
Si1348 Si 0.1425749957561493 0.6707500219345093 0.7697499990463257
Si1349 Si 0.3925749957561493 0.17075000703334808 0.2697499990463257
Si1350 Si 0.3925749957561493 0.17075000703334808 0.7697499990463257
Si1351 Si 0.3925749957561493 0.6707500219345093 0.2697499990463257
Si1352 Si 0.3925749957561493 0.6707500219345093 0.7697499990463257
Si1353 Si 0.6425750255584717 0.17075000703334808 0.2697499990463257
Si1354 Si 0.6425750255584717 0.17075000703334808 0.7697499990463257
Si1355 Si 0.6425750255584717 0.6707500219345093 0.2697499990463257
Si1356 Si 0.6425750255584717 0.6707500219345093 0.7697499990463257
Si1357 Si 0.8925750255584717 0.17075000703334808 0.2697499990463257
Si1358 Si 0.8925750255584717 0.17075000703334808 0.7697499990463257
Si1359 Si 0.8925750255584717 0.6707500219345093 0.2697499990463257
Si1360 Si 0.8925750255584717 0.6707500219345093 0.7697499990463257
Si1361 Si 0.1425749957561493 0.17075000703334808 0.4802500009536743
Si1362 Si 0.1425749957561493 0.17075000703334808 0.9802500009536743
Si1363 Si 0.1425749957561493 0.6707500219345093 0.4802500009536743
Si1364 Si 0.1425749957561493 0.6707500219345093 0.9802500009536743
Si1365 Si 0.3925749957561493 0.17075000703334808 0.4802500009536743
Si1366 Si 0.3925749957561493 0.17075000703334808 0.9802500009536743
Si1367 Si 0.3925749957561493 0.6707500219345093 0.4802500009536743
Si1368 Si 0.3925749957561493 0.6707500219345093 0.9802500009536743
Si1369 Si 0.6425750255584717 0.17075000703334808 0.4802500009536743
Si1370 Si 0.6425750255584717 0.17075000703334808 0.9802500009536743
Si1371 Si 0.6425750255584717 0.6707500219345093 0.4802500009536743
Si1372 Si 0.6425750255584717 0.6707500219345093 0.9802500009536743
Si1373 Si 0.8925750255584717 0.17075000703334808 0.4802500009536743
Si1374 Si 0.8925750255584717 0.17075000703334808 0.9802500009536743
Si1375 Si 0.8925750255584717 0.6707500219345093 0.4802500009536743
Si1376 Si 0.8925750255584717 0.6707500219345093 0.9802500009536743
Si1377 Si 0.21107499301433563 0.30024999380111694 0.03660000115633011
Si1378 Si 0.21107499301433563 0.30024999380111694 0.5365999937057495
Si1379 Si 0.21107499301433563 0.8002499938011169 0.03660000115633011
Si1380 Si 0.21107499301433563 0.8002499938011169 0.5365999937057495
Si1381 Si 0.4610750079154968 0.30024999380111694 0.03660000115633011
Si1382 Si 0.4610750079154968 0.30024999380111694 0.5365999937057495
Si1383 Si 0.4610750079154968 0.8002499938011169 0.03660000115633011
Si1384 Si 0.4610750079154968 0.8002499938011169 0.5365999937057495
Si1385 Si 0.7110750079154968 0.30024999380111694 0.03660000115633011
Si1386 Si 0.7110750079154968 0.30024999380111694 0.5365999937057495
Si1387 Si 0.7110750079154968 0.8002499938011169 0.03660000115633011
Si1388 Si 0.7110750079154968 0.8002499938011169 0.5365999937057495
Si1389 Si 0.9610750079154968 0.30024999380111694 0.03660000115633011
Si1390 Si 0.9610750079154968 0.30024999380111694 0.5365999937057495
Si1391 Si 0.9610750079154968 0.8002499938011169 0.03660000115633011
Si1392 Si 0.9610750079154968 0.8002499938011169 0.5365999937057495
Si1393 Si 0.21107499301433563 0.30024999380111694 0.2134000062942505
Si1394 Si 0.21107499301433563 0.30024999380111694 0.7134000062942505
Si1395 Si 0.21107499301433563 0.8002499938011169 0.2134000062942505
Si1396 Si 0.21107499301433563 0.8002499938011169 0.7134000062942505
Si1397 Si 0.4610750079154968 0.30024999380111694 0.2134000062942505
Si1398 Si 0.4610750079154968 0.30024999380111694 0.7134000062942505
Si1399 Si 0.4610750079154968 0.8002499938011169 0.2134000062942505
Si1400 Si 0.4610750079154968 0.8002499938011169 0.7134000062942505
Si1401 Si 0.7110750079154968 0.30024999380111694 0.2134000062942505
Si1402 Si 0.7110750079154968 0.30024999380111694 0.7134000062942505
Si1403 Si 0.7110750079154968 0.8002499938011169 0.2134000062942505
Si1404 Si 0.7110750079154968 0.8002499938011169 0.7134000062942505
Si1405 Si 0.9610750079154968 0.30024999380111694 0.2134000062942505
Si1406 Si 0.9610750079154968 0.30024999380111694 0.7134000062942505
Si1407 Si 0.9610750079154968 0.8002499938011169 0.2134000062942505
Si1408 Si 0.9610750079154968 0.8002499938011169 0.7134000062942505
Si1409 Si 0.21107499301433563 0.44975000619888306 0.2865999937057495
Si1410 Si 0.21107499301433563 0.44975000619888306 0.7865999937057495
Si1411 Si 0.21107499301433563 0.9497500061988831 0.2865999937057495
Si1412 Si 0.21107499301433563 0.9497500061988831 0.7865999937057495
Si1413 Si 0.4610750079154968 0.44975000619888306 0.2865999937057495
Si1414 Si 0.4610750079154968 0.44975000619888306 0.7865999937057495
Si1415 Si 0.4610750079154968 0.9497500061988831 0.2865999937057495
Si1416 Si 0.4610750079154968 0.9497500061988831 0.7865999937057495
Si1417 Si 0.7110750079154968 0.44975000619888306 0.2865999937057495
Si1418 Si 0.7110750079154968 0.44975000619888306 0.7865999937057495
Si1419 Si 0.7110750079154968 0.9497500061988831 0.2865999937057495
Si1420 Si 0.7110750079154968 0.9497500061988831 0.7865999937057495
Si1421 Si 0.9610750079154968 0.44975000619888306 0.2865999937057495
Si1422 Si 0.9610750079154968 0.44975000619888306 0.7865999937057495
Si1423 Si 0.9610750079154968 0.9497500061988831 0.2865999937057495
Si1424 Si 0.9610750079154968 0.9497500061988831 0.7865999937057495
Si1425 Si 0.21107499301433563 0.44975000619888306 0.4634000062942505
Si1426 Si 0.21107499301433563 0.44975000619888306 0.9634000062942505
Si1427 Si 0.21107499301433563 0.9497500061988831 0.4634000062942505
Si1428 Si 0.21107499301433563 0.9497500061988831 0.9634000062942505
Si1429 Si 0.4610750079154968 0.44975000619888306 0.4634000062942505
Si1430 Si 0.4610750079154968 0.44975000619888306 0.9634000062942505
Si1431 Si 0.4610750079154968 0.9497500061988831 0.4634000062942505
Si1432 Si 0.4610750079154968 0.9497500061988831 0.9634000062942505
Si1433 Si 0.7110750079154968 0.44975000619888306 0.4634000062942505
Si1434 Si 0.7110750079154968 0.44975000619888306 0.9634000062942505
Si1435 Si 0.7110750079154968 0.9497500061988831 0.4634000062942505
Si1436 Si 0.7110750079154968 0.9497500061988831 0.9634000062942505
Si1437 Si 0.9610750079154968 0.44975000619888306 0.4634000062942505
Si1438 Si 0.9610750079154968 0.44975000619888306 0.9634000062942505
Si1439 Si 0.9610750079154968 0.9497500061988831 0.4634000062942505
Si1440 Si 0.9610750079154968 0.9497500061988831 0.9634000062942505
Si1441 Si 0.22134999930858612 0.11309999972581863 0.07919999957084656
Si1442 Si 0.22134999930858612 0.11309999972581863 0.579200029373169
Si1443 Si 0.22134999930858612 0.613099992275238 0.07919999957084656
Si1444 Si 0.22134999930858612 0.613099992275238 0.579200029373169
Si1445 Si 0.4713500142097473 0.11309999972581863 0.07919999957084656
Si1446 Si 0.4713500142097473 0.11309999972581863 0.579200029373169
Si1447 Si 0.4713500142097473 0.613099992275238 0.07919999957084656
Si1448 Si 0.4713500142097473 0.613099992275238 0.579200029373169
Si1449 Si 0.7213500142097473 0.11309999972581863 0.07919999957084656
Si1450 Si 0.7213500142097473 0.11309999972581863 0.579200029373169
Si1451 Si 0.7213500142097473 0.613099992275238 0.07919999957084656
Si1452 Si 0.7213500142097473 0.613099992275238 0.579200029373169
Si1453 Si 0.9713500142097473 0.11309999972581863 0.07919999957084656
Si1454 Si 0.9713500142097473 0.11309999972581863 0.579200029373169
Si1455 Si 0.9713500142097473 0.613099992275238 0.07919999957084656
Si1456 Si 0.9713500142097473 0.613099992275238 0.579200029373169
Si1457 Si 0.22134999930858612 0.11309999972581863 0.17080000042915344
Si1458 Si 0.22134999930858612 0.11309999972581863 0.670799970626831
Si1459 Si 0.22134999930858612 0.613099992275238 0.17080000042915344
Si1460 Si 0.22134999930858612 0.613099992275238 0.670799970626831
Si1461 Si 0.4713500142097473 0.11309999972581863 0.17080000042915344
Si1462 Si 0.4713500142097473 0.11309999972581863 0.670799970626831
Si1463 Si 0.4713500142097473 0.613099992275238 0.17080000042915344
Si1464 Si 0.4713500142097473 0.613099992275238 0.670799970626831
Si1465 Si 0.7213500142097473 0.11309999972581863 0.17080000042915344
Si1466 Si 0.7213500142097473 0.11309999972581863 0.670799970626831
Si1467 Si 0.7213500142097473 0.613099992275238 0.17080000042915344
Si1468 Si 0.7213500142097473 0.613099992275238 0.670799970626831
Si1469 Si 0.9713500142097473 0.11309999972581863 0.17080000042915344
Si1470 Si 0.9713500142097473 0.11309999972581863 0.670799970626831
Si1471 Si 0.9713500142097473 0.613099992275238 0.17080000042915344
Si1472 Si 0.9713500142097473 0.613099992275238 0.670799970626831
Si1473 Si 0.22134999930858612 0.13689999282360077 0.32919999957084656
Si1474 Si 0.22134999930858612 0.13689999282360077 0.829200029373169
Si1475 Si 0.22134999930858612 0.636900007724762 0.32919999957084656
Si1476 Si 0.22134999930858612 0.636900007724762 0.829200029373169
Si1477 Si 0.4713500142097473 0.13689999282360077 0.32919999957084656
Si1478 Si 0.4713500142097473 0.13689999282360077 0.829200029373169
Si1479 Si 0.4713500142097473 0.636900007724762 0.32919999957084656
Si1480 Si 0.4713500142097473 0.636900007724762 0.829200029373169
Si1481 Si 0.7213500142097473 0.13689999282360077 0.32919999957084656
Si1482 Si 0.7213500142097473 0.13689999282360077 0.829200029373169
Si1483 Si 0.7213500142097473 0.636900007724762 0.32919999957084656
Si1484 Si 0.7213500142097473 0.636900007724762 0.829200029373169
Si1485 Si 0.9713500142097473 0.13689999282360077 0.32919999957084656
Si1486 Si 0.9713500142097473 0.13689999282360077 0.829200029373169
Si1487 Si 0.9713500142097473 0.636900007724762 0.32919999957084656
Si1488 Si 0.9713500142097473 0.636900007724762 0.829200029373169
Si1489 Si 0.22134999930858612 0.13689999282360077 0.42080000042915344
Si1490 Si 0.22134999930858612 0.13689999282360077 0.920799970626831
Si1491 Si 0.22134999930858612 0.636900007724762 0.42080000042915344
Si1492 Si 0.22134999930858612 0.636900007724762 0.920799970626831
Si1493 Si 0.4713500142097473 0.13689999282360077 0.42080000042915344
Si1494 Si 0.4713500142097473 0.13689999282360077 0.920799970626831
Si1495 Si 0.4713500142097473 0.636900007724762 0.42080000042915344
Si1496 Si 0.4713500142097473 0.636900007724762 0.920799970626831
Si1497 Si 0.7213500142097473 0.13689999282360077 0.42080000042915344
Si1498 Si 0.7213500142097473 0.13689999282360077 0.920799970626831
Si1499 Si 0.7213500142097473 0.636900007724762 0.42080000042915344
Si1500 Si 0.7213500142097473 0.636900007724762 0.920799970626831
Si1501 Si 0.9713500142097473 0.13689999282360077 0.42080000042915344
Si1502 Si 0.9713500142097473 0.13689999282360077 0.920799970626831
Si1503 Si 0.9713500142097473 0.636900007724762 0.42080000042915344
Si1504 Si 0.9713500142097473 0.636900007724762 0.920799970626831
Si1505 Si 0.22327500581741333 0.04800000041723251 0.2851499915122986
Si1506 Si 0.22327500581741333 0.04800000041723251 0.7851499915122986
Si1507 Si 0.22327500581741333 0.5479999780654907 0.2851499915122986
Si1508 Si 0.22327500581741333 0.5479999780654907 0.7851499915122986
Si1509 Si 0.47327500581741333 0.04800000041723251 0.2851499915122986
Si1510 Si 0.47327500581741333 0.04800000041723251 0.7851499915122986
Si1511 Si 0.47327500581741333 0.5479999780654907 0.2851499915122986
Si1512 Si 0.47327500581741333 0.5479999780654907 0.7851499915122986
Si1513 Si 0.7232750058174133 0.04800000041723251 0.2851499915122986
Si1514 Si 0.7232750058174133 0.04800000041723251 0.7851499915122986
Si1515 Si 0.7232750058174133 0.5479999780654907 0.2851499915122986
Si1516 Si 0.7232750058174133 0.5479999780654907 0.7851499915122986
Si1517 Si 0.9732750058174133 0.04800000041723251 0.2851499915122986
Si1518 Si 0.9732750058174133 0.04800000041723251 0.7851499915122986
Si1519 Si 0.9732750058174133 0.5479999780654907 0.2851499915122986
Si1520 Si 0.9732750058174133 0.5479999780654907 0.7851499915122986
Si1521 Si 0.22327500581741333 0.04800000041723251 0.4648500084877014
Si1522 Si 0.22327500581741333 0.04800000041723251 0.9648500084877014
Si1523 Si 0.22327500581741333 0.5479999780654907 0.4648500084877014
Si1524 Si 0.22327500581741333 0.5479999780654907 0.9648500084877014
Si1525 Si 0.47327500581741333 0.04800000041723251 0.4648500084877014
Si1526 Si 0.47327500581741333 0.04800000041723251 0.9648500084877014
Si1527 Si 0.47327500581741333 0.5479999780654907 0.4648500084877014
Si1528 Si 0.47327500581741333 0.5479999780654907 0.9648500084877014
Si1529 Si 0.7232750058174133 0.04800000041723251 0.4648500084877014
Si1530 Si 0.7232750058174133 0.04800000041723251 0.9648500084877014
Si1531 Si 0.7232750058174133 0.5479999780654907 0.4648500084877014
Si1532 Si 0.7232750058174133 0.5479999780654907 0.9648500084877014
Si1533 Si 0.9732750058174133 0.04800000041723251 0.4648500084877014
Si1534 Si 0.9732750058174133 0.04800000041723251 0.9648500084877014
Si1535 Si 0.9732750058174133 0.5479999780654907 0.4648500084877014
Si1536 Si 0.9732750058174133 0.5479999780654907 0.9648500084877014
Si1537 Si 0.22327500581741333 0.20200000703334808 0.03514999896287918
Si1538 Si 0.22327500581741333 0.20200000703334808 0.5351499915122986
Si1539 Si 0.22327500581741333 0.7020000219345093 0.03514999896287918
Si1540 Si 0.22327500581741333 0.7020000219345093 0.5351499915122986
Si1541 Si 0.47327500581741333 0.20200000703334808 0.03514999896287918
Si1542 Si 0.47327500581741333 0.20200000703334808 0.5351499915122986
Si1543 Si 0.47327500581741333 0.7020000219345093 0.03514999896287918
Si1544 Si 0.47327500581741333 0.7020000219345093 0.5351499915122986
Si1545 Si 0.7232750058174133 0.20200000703334808 0.03514999896287918
Si1546 Si 0.7232750058174133 0.20200000703334808 0.5351499915122986
Si1547 Si 0.7232750058174133 0.7020000219345093 0.03514999896287918
Si1548 Si 0.7232750058174133 0.7020000219345093 0.5351499915122986
Si1549 Si 0.9732750058174133 0.20200000703334808 0.03514999896287918
Si1550 Si 0.9732750058174133 0.20200000703334808 0.5351499915122986
Si1551 Si 0.9732750058174133 0.7020000219345093 0.03514999896287918
Si1552 Si 0.9732750058174133 0.7020000219345093 0.5351499915122986
Si1553 Si 0.22327500581741333 0.20200000703334808 0.21484999358654022
Si1554 Si 0.22327500581741333 0.20200000703334808 0.7148500084877014
Si1555 Si 0.22327500581741333 0.7020000219345093 0.21484999358654022
Si1556 Si 0.22327500581741333 0.7020000219345093 0.7148500084877014
Si1557 Si 0.47327500581741333 0.20200000703334808 0.21484999358654022
Si1558 Si 0.47327500581741333 0.20200000703334808 0.7148500084877014
Si1559 Si 0.47327500581741333 0.7020000219345093 0.21484999358654022
Si1560 Si 0.47327500581741333 0.7020000219345093 0.7148500084877014
Si1561 Si 0.7232750058174133 0.20200000703334808 0.21484999358654022
Si1562 Si 0.7232750058174133 0.20200000703334808 0.7148500084877014
Si1563 Si 0.7232750058174133 0.7020000219345093 0.21484999358654022
Si1564 Si 0.7232750058174133 0.7020000219345093 0.7148500084877014
Si1565 Si 0.9732750058174133 0.20200000703334808 0.21484999358654022
Si1566 Si 0.9732750058174133 0.20200000703334808 0.7148500084877014
Si1567 Si 0.9732750058174133 0.7020000219345093 0.21484999358654022
Si1568 Si 0.9732750058174133 0.7020000219345093 0.7148500084877014
